
Spectre (R) Circuit Simulator
Version 21.1.0.751.isr19 64bit -- 22 May 2023
Copyright (C) 1989-2023 Cadence Design Systems, Inc. All rights reserved worldwide. Cadence and Spectre are registered trademarks of Cadence Design Systems, Inc. All others are the property of their respective holders.

Includes RSA BSAFE(R) Cryptographic or Security Protocol Software from RSA Security, Inc.

User: oj23092   Host: it075891.wks.bris.ac.uk   HostID: DE89A69F   PID: 258689
Memory  available: 12.6064 GB  physical: 16.2980 GB
Linux   : Rocky Linux release 8.9 (Green Obsidian)
CPU Type: Intel(R) Core(TM) i7-8700 CPU @ 3.20GHz
        Socket: Processors [Frequency] (Hyperthreaded Processor)
        0:       0 [3200.0] (  6 ),  1 [3200.0] (  7 ),  2 [4299.8] (  8 )
                 3 [3200.0] (  9 ),  4 [3200.0] ( 10 ),  5 [3200.0] ( 11 )
        
System load averages (1min, 5min, 15min) : 6.1 %, 4.6 %, 3.2 %
Hyperthreading is enabled
HPC is enabled


Simulating `input.scs' on it075891.wks.bris.ac.uk at 10:36:17 PM, Sat Apr 20, 2024 (process id: 258689).
Current working directory: /home/oj23092/VLSI_Design_Lab/Sim/lab2024/tb_ycircuitcustom/adexl/results/data/MonteCarlo.5/1/lab2024:tb_ycircuitcustom:1/groupRunDataDir/netlist
Command line:
     \
        /eda/cadence/2022-23/RHELx86/SPECTRE_21.10.751/tools.lnx86/bin/spectre  \
        -64 input.scs +escchars +log ../psf/spectre.out -format psfbin  \
        +rtsf -raw ../psf +aps +mt +lqtimeout 900 -maxw 5 -maxn 5  \
        +param /eda/cadence/ams/4.10/spectre/ams_range.lmts -env ade  \
        -ahdllibdir  \
        /home/oj23092/VLSI_Design_Lab/Sim/lab2024/tb_ycircuitcustom/adexl/results/data/MonteCarlo.5/sharedData/Job3/ahdl/input.ahdlSimDB  \
        +logstatus

Licensing Information:
[22:36:17.289706] Configured Lic search path (21.01-s002): 5280@ls-dc2-fen-p1.services.bris.ac.uk:5280@ls-dc2-fen-p0.services.bris.ac.uk

Licensing Information:
[22:36:17.018192] Periodic Lic check successful

Loading /eda/cadence/2022-23/RHELx86/SPECTRE_21.10.751/tools.lnx86/cmi/lib/64bit/5.0/libinfineon_sh.so ...
Loading /eda/cadence/2022-23/RHELx86/SPECTRE_21.10.751/tools.lnx86/cmi/lib/64bit/5.0/libphilips_o_sh.so ...
Loading /eda/cadence/2022-23/RHELx86/SPECTRE_21.10.751/tools.lnx86/cmi/lib/64bit/5.0/libphilips_sh.so ...
Loading /eda/cadence/2022-23/RHELx86/SPECTRE_21.10.751/tools.lnx86/cmi/lib/64bit/5.0/libsparam_sh.so ...
Loading /eda/cadence/2022-23/RHELx86/SPECTRE_21.10.751/tools.lnx86/cmi/lib/64bit/5.0/libstmodels_sh.so ...
Reading file:  /home/oj23092/VLSI_Design_Lab/Sim/lab2024/tb_ycircuitcustom/adexl/results/data/MonteCarlo.5/1/lab2024:tb_ycircuitcustom:1/groupRunDataDir/netlist/input.scs
Reading file:  /eda/cadence/ams/4.10/spectre/ams_range.lmts

Warning from spectre during read of parameter soft limits file `/eda/cadence/ams/4.10/spectre/ams_range.lmts', during circuit read-in.
    WARNING (SPECTRE-8360): line 1511: `ac' is an undefined primitive device.
    WARNING (SPECTRE-8360): line 1512: `ac' is an undefined primitive device.
    WARNING (SPECTRE-8360): line 1513: `ac' is an undefined primitive device.
    WARNING (SPECTRE-8360): line 1514: `ac' is an undefined primitive device.
    WARNING (SPECTRE-8360): line 1515: `ac' is an undefined primitive device.
        Further occurrences of this warning will be suppressed.

Reading file:  /eda/cadence/2022-23/RHELx86/SPECTRE_21.10.751/tools.lnx86/spectre/etc/configs/spectre.cfg
Reading file:  /eda/cadence/ams/4.10/spectre/c35/soac/soac.scs
Reading file:  /eda/cadence/ams/4.10/spectre/c35/soac/processOption.scs
Reading file:  /eda/cadence/ams/4.10/spectre/c35/soac/process.scs
Reading file:  /eda/cadence/ams/4.10/spectre/c35/soac/soac.va

Warning from spectre during AHDL read-in.
    WARNING (VACOMP-2435): The environment variable CDS_AHDLCMI_ENABLE is no longer supported. Therefore, the simulator will use the default compiled C code flow.

Reading link:  /eda/cadence/2022-23/RHELx86/SPECTRE_21.10.751/tools.lnx86/spectre/etc/ahdl/constants.h
Reading file:  /eda/cadence/2022-23/RHELx86/SPECTRE_21.10.751/tools.lnx86/spectre/etc/ahdl/constants.vams
Reading link:  /eda/cadence/2022-23/RHELx86/SPECTRE_21.10.751/tools.lnx86/spectre/etc/ahdl/discipline.h
Reading file:  /eda/cadence/2022-23/RHELx86/SPECTRE_21.10.751/tools.lnx86/spectre/etc/ahdl/disciplines.vams
Reading file:  /eda/cadence/ams/4.10/spectre/c35/processOption/C35B4C3.scs
Reading file:  /eda/cadence/ams/4.10/spectre/c35/soac/cmos53.scs
Reading file:  /eda/cadence/ams/4.10/spectre/c35/soac/res.scs
Reading file:  /eda/cadence/ams/4.10/spectre/c35/soac/cap.scs
Reading file:  /eda/cadence/ams/4.10/spectre/c35/soac/bip.scs
Reading file:  /eda/cadence/ams/4.10/spectre/c35/soac/ind.scs
Reading file:  /eda/cadence/ams/4.10/spectre/c35/soac/esddiode.scs
Time for NDB Parsing: CPU = 71.561 ms, elapsed = 387.842 ms.
Time accumulated: CPU = 130.444 ms, elapsed = 387.844 ms.
Peak resident memory used = 162 Mbytes.

TCP: opening server port it075891.wks.bris.ac.uk:42585
Existing shared object for module modp_ahdl is up to date.
Installed compiled interface for modp_ahdl.
Existing shared object for module modn_ahdl is up to date.
Installed compiled interface for modn_ahdl.
Time for Elaboration: CPU = 19.999 ms, elapsed = 22.85 ms.
Time accumulated: CPU = 150.504 ms, elapsed = 410.754 ms.
Peak resident memory used = 171 Mbytes.


Notice from spectre during hierarchy flattening.
    The value 'psf' specified for the 'checklimitdest' option will no longer be supported in future releases. Use 'spectre -h' to see other recommended values for the 'checklimitdest' option.


Time for EDB Visiting: CPU = 1.365 ms, elapsed = 2.033 ms.
Time accumulated: CPU = 151.932 ms, elapsed = 412.85 ms.
Peak resident memory used = 173 Mbytes.

Loading /eda/cadence/2022-23/RHELx86/SPECTRE_21.10.751/tools.lnx86/mdl/lib/64bit/libSpectreEH_sh.so ...

Warning from spectre during initial setup.
    WARNING (SPECTRE-16460): SOAC_cvarm_vspsub:Specified subcircuit master `cvarm' was not found.
    WARNING (SPECTRE-16462): SOAC_cvarm_vspsub:Error in specification of subcircuit master. Assert is ignored.
    WARNING (SPECTRE-16460): SOAC_cvarm_vbs:Specified subcircuit master `cvarm' was not found.
    WARNING (SPECTRE-16462): SOAC_cvarm_vbs:Error in specification of subcircuit master. Assert is ignored.
    WARNING (SPECTRE-16460): SOAC_cvarm_vgb:Specified subcircuit master `cvarm' was not found.
    WARNING (SPECTRE-16462): SOAC_cvarm_vgb:Error in specification of subcircuit master. Assert is ignored.
    WARNING (SPECTRE-16460): SOAC_cvart_vspsub:Specified subcircuit master `cvart' was not found.
    WARNING (SPECTRE-16462): SOAC_cvart_vspsub:Error in specification of subcircuit master. Assert is ignored.
    WARNING (SPECTRE-16460): SOAC_cvart_vbs:Specified subcircuit master `cvart' was not found.
        Further occurrences of this warning will be suppressed.
    WARNING (SPECTRE-16462): SOAC_cvart_vbs:Error in specification of subcircuit master. Assert is ignored.
        Further occurrences of this warning will be suppressed.
Notice from spectre during initial setup.
    Ignorevaref=yes is ignored since all nodes are connected to Verilog-A modules.
Notice from spectre during topology check.
    Only one connection to the following 8 nodes:
        I4.MPD.psub!
        I4.MPC.psub!
        I4.MPB.psub!
        I4.MPA.psub!
        I4.MNC.psub!
        Further occurrences of this notice will be suppressed.
Notice from spectre during initial setup.
    Multithreading is disabled due to the size of the design being too small.


Global user options:
         psfversion = 1.4.0
            vabstol = 1e-06
            iabstol = 1e-12
               temp = 27
           homotopy = 5
              limit = delta
         compatible = spice2
               gmin = 1e-12
             rforce = 1
           maxnotes = 5
           maxwarns = 5
             digits = 5
               cols = 80
             pivrel = 0.001
           sensfile = ../psf/sens.output
     checklimitdest = psf
     enable_pre_ver = yes
      ignorezerovar = yes
               save = allpub
             reltol = 0.0001
               tnom = 27
             scalem = 1
              scale = 1

Scoped user options:

Circuit inventory:
              nodes 17
            bsim3v3 8     
          capacitor 1     
          modn_ahdl 4     
          modp_ahdl 4     
            vsource 5     

Analysis and control statement inventory:
               info 7     
         montecarlo 1     
               tran 1     

Output statements:
             .probe 0     
           .measure 0     
               save 1     

Design checks inventory:
          paramtest 8     
             assert 175   


Notice from spectre during initial setup.
    APS enabled.
    1 notice suppressed.
    72 warnings suppressed.

Time for parsing: CPU = 5.73 ms, elapsed = 268.957 ms.
Time accumulated: CPU = 157.714 ms, elapsed = 681.86 ms.
Peak resident memory used = 179 Mbytes.

~~~~~~~~~~~~~~~~~~~~~~
Pre-Simulation Summary
~~~~~~~~~~~~~~~~~~~~~~
   -   (APS) Multi-threading. The recommended number of threads is 1, consider adding +mt=1 on command line.
~~~~~~~~~~~~~~~~~~~~~~

**************************************************
Monte Carlo Analysis `mc1': iteration = (1 -> 100)
**************************************************
Important parameter values:
    seed = 12345
    sampling = standard
    variations = all
    firstrun = 1
    numruns = 100
    nullmfactorcorrelation = no
    donominal = yes
    method = standard

**** Performing nominal run for `mc1'

Notice from spectre during transient analysis `tran', during Monte Carlo analysis `mc1'.
    No checklimit analysis defined for asserts. A default checklimit analysis 'SpectreChecklimitAnal' has been created with all asserts enabled.


************************************************
Transient Analysis `tran': time = (0 s -> 20 ns)
************************************************

Notice from spectre during IC analysis, during transient analysis `tran', during Monte Carlo analysis `mc1'.
    GminDC = 1 pS is large enough to noticeably affect the DC solution.
        dV(I4.net2) = 101.841 mV
        Use the `gmin_check' option to eliminate or expand this report.
Warning from spectre during check, during IC analysis, during transient analysis `tran', during Monte Carlo analysis `mc1'.
    WARNING (CMI-2943): Parameter checks have been ignored because the valid value for parameter 'trise' could not be found in 'C0'.

DC simulation time: CPU = 462 us, elapsed = 464.916 us.

Opening the PSF file ../psf/nom/tran.tran.tran ...
Important parameter values:
    start = 0 s
    outputstart = 0 s
    stop = 20 ns
    step = 20 ps
    maxstep = 200 ps
    ic = all
    useprevic = no
    skipdc = no
    reltol = 10e-06
    abstol(V) = 1 uV
    abstol(I) = 1 pA
    temp = 27 C
    tnom = 27 C
    tempeffects = all
    errpreset = conservative
    method = gear2only
    lteratio = 10
    relref = alllocal
    cmin = 0 F
    gmin = 1 pS
    rabsshort = 1 mOhm


Notice from spectre during transient analysis `tran', during Monte Carlo analysis `mc1'.
    Multithreading is disabled due to the size of the design being too small.


Output and IC/nodeset summary:
                 save   5       (current)
                 save   17      (voltage)

    tran: time = 509.1 ps    (2.55 %), step = 26.25 ps     (131 m%)
SOAC: I4.MND.soac_m1       modn V(B,PSUB): LEAVING@  0us ;
SOAC: I4.MND.soac_m1       modn V(B,PSUB): ENTERING@ 0.00117611us duration:0.00118us ;
    tran: time = 1.513 ns    (7.57 %), step = 18.07 ps    (90.3 m%)
    tran: time = 2.526 ns    (12.6 %), step = 27.43 ps     (137 m%)
    tran: time = 3.517 ns    (17.6 %), step = 25.42 ps     (127 m%)
SOAC: I4.MND.soac_m1       modn V(B,PSUB): LEAVING@  0.00310073us ;
    tran: time = 4.507 ns    (22.5 %), step = 48.63 ps     (243 m%)
SOAC: I4.MND.soac_m1       modn V(B,PSUB): ENTERING@ 0.0050251us duration:0.00192us ;
    tran: time = 5.502 ns    (27.5 %), step = 44.11 ps     (221 m%)
    tran: time = 6.508 ns    (32.5 %), step = 10.27 ps    (51.4 m%)
    tran: time = 7.523 ns    (37.6 %), step = 26 ps        (130 m%)
SOAC: I4.MND.soac_m1       modn V(B,PSUB): LEAVING@  0.00710072us ;
    tran: time = 8.508 ns    (42.5 %), step = 48.68 ps     (243 m%)
SOAC: I4.MND.soac_m1       modn V(B,PSUB): ENTERING@ 0.0090427us duration:0.00194us ;
    tran: time = 9.51 ns     (47.5 %), step = 33.26 ps     (166 m%)
    tran: time = 10.51 ns    (52.6 %), step = 24.01 ps     (120 m%)
    tran: time = 11.51 ns    (57.6 %), step = 15.88 ps    (79.4 m%)
    tran: time = 12.52 ns    (62.6 %), step = 61.72 ps     (309 m%)
SOAC: I4.MND.soac_m1       modn V(B,PSUB): LEAVING@  0.0120277us ;
SOAC: I4.MND.soac_m1       modn V(B,PSUB): ENTERING@ 0.0131118us duration:0.00108us ;
    tran: time = 13.54 ns    (67.7 %), step = 46.03 ps     (230 m%)
    tran: time = 14.52 ns    (72.6 %), step = 34.54 ps     (173 m%)
    tran: time = 15.51 ns    (77.5 %), step = 12.03 ps    (60.1 m%)
SOAC: I4.MND.soac_m1       modn V(B,PSUB): LEAVING@  0.0150041us ;
    tran: time = 16.51 ns    (82.6 %), step = 30.75 ps     (154 m%)
SOAC: I4.MND.soac_m1       modn V(B,PSUB): ENTERING@ 0.0171288us duration:0.00212us ;
    tran: time = 17.51 ns    (87.5 %), step = 64.26 ps     (321 m%)
    tran: time = 18.52 ns    (92.6 %), step = 34.53 ps     (173 m%)
    tran: time = 19.51 ns    (97.5 %), step = 27.81 ps     (139 m%)
Number of accepted tran steps =             2734

Maximum value achieved for any signal of each quantity: 
V: V(I4.net1) = 3.735 V
I: I(V:p) = 712.1 uA

~~~~~~~~~~~~~~~~~~~~~~~~~~~~~~~~~
Post-Transient Simulation Summary
~~~~~~~~~~~~~~~~~~~~~~~~~~~~~~~~~
   -   To further speed up simulation, consider
          add ++aps on command line
   -   Non-default settings that could significantly slow down simulation
          errpreset = conservative, default moderate
          reltol = 10e-06, default 100e-06 (conservative)
   -   Features that may significantly slowing down simulation
          asserts = 57.8601 ms
~~~~~~~~~~~~~~~~~~~~~~~~~~~~~~~~~


During simulation, the CPU load for active processors is :
         0 (1.0 %)       1 (15.6 %)      2 (41.1 %)      3 (3.1 %)
         4 (2.1 %)       5 (5.2 %)       6 (2.1 %)       7 (1.0 %)
         8 (4.1 %)       9 (1.1 %)      11 (2.1 %)      
        Total: 78.4%
Initial condition solution time: CPU = 482 us, elapsed = 486.135 us.
Intrinsic tran analysis time:    CPU = 285.063 ms, elapsed = 299.942 ms.
Total time required for tran analysis `tran': CPU = 288.143 ms, elapsed = 320.958 ms, util. = 89.8%.
Time accumulated: CPU = 450.629 ms, elapsed = 1.01557 s.
Peak resident memory used = 188 Mbytes.

finalTimeOP: writing operating point information to rawfile.

Opening the PSF file ../psf/nom/finalTimeOP.info ...
modelParameter: writing model parameter values to rawfile.

Opening the PSF file ../psf/nom/modelParameter.info ...
element: writing instance parameter values to rawfile.

Opening the PSF file ../psf/nom/element.info ...
outputParameter: writing output parameter values to rawfile.

Opening the PSF file ../psf/nom/outputParameter.info ...
designParamVals: writing netlist parameters to rawfile.

Opening the PSFASCII file ../psf/nom/designParamVals.info ...
primitives: writing primitives to rawfile.

Opening the PSFASCII file ../psf/nom/primitives.info.primitives ...
subckts: writing subcircuits to rawfile.

Opening the PSFASCII file ../psf/nom/subckts.info.subckts ...
Opening process scalar file:  /home/oj23092/VLSI_Design_Lab/Sim/lab2024/tb_ycircuitcustom/adexl/results/data/MonteCarlo.5/1/lab2024:tb_ycircuitcustom:1/groupRunDataDir/netlist/../psf/../monteCarlo/processData
Opening process param file:  /home/oj23092/VLSI_Design_Lab/Sim/lab2024/tb_ycircuitcustom/adexl/results/data/MonteCarlo.5/1/lab2024:tb_ycircuitcustom:1/groupRunDataDir/netlist/../psf/../monteCarlo/processParam
Opening process full param file:  /home/oj23092/VLSI_Design_Lab/Sim/lab2024/tb_ycircuitcustom/adexl/results/data/MonteCarlo.5/1/lab2024:tb_ycircuitcustom:1/groupRunDataDir/netlist/../psf/mc1.process_full.mcparam
Opening process correlation param file:  /home/oj23092/VLSI_Design_Lab/Sim/lab2024/tb_ycircuitcustom/adexl/results/data/MonteCarlo.5/1/lab2024:tb_ycircuitcustom:1/groupRunDataDir/netlist/../psf/mc1.process.correlate.mcparam
Opening mismatch full param file:  /home/oj23092/VLSI_Design_Lab/Sim/lab2024/tb_ycircuitcustom/adexl/results/data/MonteCarlo.5/1/lab2024:tb_ycircuitcustom:1/groupRunDataDir/netlist/../psf/mc1.mismatch_full.mcparam
Opening mismatch correlation param file:  /home/oj23092/VLSI_Design_Lab/Sim/lab2024/tb_ycircuitcustom/adexl/results/data/MonteCarlo.5/1/lab2024:tb_ycircuitcustom:1/groupRunDataDir/netlist/../psf/mc1.mismatch.correlate.mcparam
Opening iteration number and data-directory mapping file:  /home/oj23092/VLSI_Design_Lab/Sim/lab2024/tb_ycircuitcustom/adexl/results/data/MonteCarlo.5/1/lab2024:tb_ycircuitcustom:1/groupRunDataDir/netlist/../psf/mc1.mapping

Statistical parameters:
    Defined process parameters: 629
    Defined mismatch parameters (subckt based): 86
    Non-referenced mismatch parameters: 86
    Number of random variables: 629
    Gaussian truncation for process parameters: 4.00 sigma
    Gaussian truncation for mismatch parameters: 4.00 sigma


Opening the PSF file ../psf/mc1_tran.montecarlo ...

Opening the PSF file ../psf/mc1_finalTimeOP.montecarlo ...

Opening the PSF file ../psf/mc1_modelParameter.montecarlo ...

Opening the PSF file ../psf/mc1_element.montecarlo ...

Opening the PSF file ../psf/mc1_outputParameter.montecarlo ...

Opening the PSF file ../psf/mc1_designParamVals.montecarlo ...

Opening the PSF file ../psf/mc1_primitives.montecarlo ...

Opening the PSF file ../psf/mc1_subckts.montecarlo ...

**** Performing monte carlo loop for `mc1'

1              0.00% 

************************************************
Transient Analysis `tran': time = (0 s -> 20 ns)
************************************************

Opening the PSF file ../psf/mc1_separate/001/tran.tran.tran ...

Notice from spectre at iteration = 1 during IC analysis, during transient analysis `tran', during Monte Carlo analysis `mc1'.
    GminDC = 1 pS is large enough to noticeably affect the DC solution.
        dV(I4.net2) = 101.841 mV
        Use the `gmin_check' option to eliminate or expand this report.
Warning from spectre at iteration = 1 during check, during IC analysis, during transient analysis `tran', during Monte Carlo analysis `mc1'.
    WARNING (CMI-2943): Parameter checks have been ignored because the valid value for parameter 'trise' could not be found in 'C0'.

DC simulation time: CPU = 412 us, elapsed = 416.04 us.
Important parameter values:
    start = 0 s
    outputstart = 0 s
    stop = 20 ns
    step = 20 ps
    maxstep = 200 ps
    ic = all
    useprevic = no
    skipdc = no
    reltol = 10e-06
    abstol(V) = 1 uV
    abstol(I) = 1 pA
    temp = 27 C
    tnom = 27 C
    tempeffects = all
    errpreset = conservative
    method = gear2only
    lteratio = 10
    relref = alllocal
    cmin = 0 F
    gmin = 1 pS
    rabsshort = 1 mOhm


Notice from spectre at iteration = 1 during transient analysis `tran', during Monte Carlo analysis `mc1'.
    Multithreading is disabled due to the size of the design being too small.


Output and IC/nodeset summary:
                 save   5       (current)
                 save   17      (voltage)


Opening the PSF file ../psf/mc1_tranViolations.montecarlo ...
    tran: time = 509.1 ps    (2.55 %), step = 26.25 ps     (131 m%)
SOAC: I4.MND.soac_m1       modn V(B,PSUB): LEAVING@  0us ;
SOAC: I4.MND.soac_m1       modn V(B,PSUB): ENTERING@ 0.00117611us duration:0.00118us ;
    tran: time = 1.513 ns    (7.57 %), step = 18.07 ps    (90.3 m%)
    tran: time = 2.526 ns    (12.6 %), step = 27.43 ps     (137 m%)
    tran: time = 3.517 ns    (17.6 %), step = 25.42 ps     (127 m%)
SOAC: I4.MND.soac_m1       modn V(B,PSUB): LEAVING@  0.00310073us ;
    tran: time = 4.507 ns    (22.5 %), step = 48.63 ps     (243 m%)
SOAC: I4.MND.soac_m1       modn V(B,PSUB): ENTERING@ 0.0050251us duration:0.00192us ;
    tran: time = 5.502 ns    (27.5 %), step = 44.11 ps     (221 m%)
    tran: time = 6.508 ns    (32.5 %), step = 10.27 ps    (51.4 m%)
    tran: time = 7.523 ns    (37.6 %), step = 26 ps        (130 m%)
SOAC: I4.MND.soac_m1       modn V(B,PSUB): LEAVING@  0.00710072us ;
    tran: time = 8.508 ns    (42.5 %), step = 48.68 ps     (243 m%)
SOAC: I4.MND.soac_m1       modn V(B,PSUB): ENTERING@ 0.0090427us duration:0.00194us ;
    tran: time = 9.51 ns     (47.5 %), step = 33.26 ps     (166 m%)
    tran: time = 10.51 ns    (52.6 %), step = 24.01 ps     (120 m%)
    tran: time = 11.51 ns    (57.6 %), step = 15.88 ps    (79.4 m%)
    tran: time = 12.52 ns    (62.6 %), step = 61.72 ps     (309 m%)
SOAC: I4.MND.soac_m1       modn V(B,PSUB): LEAVING@  0.0120277us ;
SOAC: I4.MND.soac_m1       modn V(B,PSUB): ENTERING@ 0.0131118us duration:0.00108us ;
    tran: time = 13.54 ns    (67.7 %), step = 46.03 ps     (230 m%)
    tran: time = 14.52 ns    (72.6 %), step = 34.54 ps     (173 m%)
    tran: time = 15.51 ns    (77.5 %), step = 12.03 ps    (60.1 m%)
SOAC: I4.MND.soac_m1       modn V(B,PSUB): LEAVING@  0.0150041us ;
    tran: time = 16.51 ns    (82.6 %), step = 30.75 ps     (154 m%)
SOAC: I4.MND.soac_m1       modn V(B,PSUB): ENTERING@ 0.0171288us duration:0.00212us ;
    tran: time = 17.51 ns    (87.5 %), step = 64.26 ps     (321 m%)
    tran: time = 18.52 ns    (92.6 %), step = 34.53 ps     (173 m%)
    tran: time = 19.51 ns    (97.5 %), step = 27.81 ps     (139 m%)
Number of accepted tran steps =             2734

Maximum value achieved for any signal of each quantity: 
V: V(I4.net1) = 3.735 V
I: I(V:p) = 712.1 uA

~~~~~~~~~~~~~~~~~~~~~~~~~~~~~~~~~
Post-Transient Simulation Summary
~~~~~~~~~~~~~~~~~~~~~~~~~~~~~~~~~
   -   To further speed up simulation, consider
          add ++aps on command line
   -   Non-default settings that could significantly slow down simulation
          errpreset = conservative, default moderate
          reltol = 10e-06, default 100e-06 (conservative)
~~~~~~~~~~~~~~~~~~~~~~~~~~~~~~~~~


During simulation, the CPU load for active processors is :
         1 (11.4 %)      2 (51.5 %)      3 (3.0 %)       4 (1.5 %)
         5 (3.8 %)       6 (1.5 %)       8 (3.0 %)       9 (1.5 %)
        11 (2.3 %)      
        Total: 81.1%
Initial condition solution time: CPU = 427 us, elapsed = 432.968 us.
Intrinsic tran analysis time:    CPU = 248.787 ms, elapsed = 258.337 ms.
Total time required for tran analysis `tran': CPU = 250.639 ms, elapsed = 269.038 ms, util. = 93.2%.
Time accumulated: CPU = 729.128 ms, elapsed = 1.35684 s.
Peak resident memory used = 195 Mbytes.

finalTimeOP: writing operating point information to rawfile.

Opening the PSF file ../psf/mc1_separate/001/finalTimeOP.info ...
modelParameter: writing model parameter values to rawfile.

Opening the PSF file ../psf/mc1_separate/001/modelParameter.info ...
element: writing instance parameter values to rawfile.

Opening the PSF file ../psf/mc1_separate/001/element.info ...
outputParameter: writing output parameter values to rawfile.

Opening the PSF file ../psf/mc1_separate/001/outputParameter.info ...
designParamVals: writing netlist parameters to rawfile.

Opening the PSFASCII file ../psf/mc1_separate/001/designParamVals.info ...
primitives: writing primitives to rawfile.

Opening the PSFASCII file ../psf/mc1_separate/001/primitives.info.primitives ...
subckts: writing subcircuits to rawfile.

Opening the PSFASCII file ../psf/mc1_separate/001/subckts.info.subckts ...
2              1.01% 

************************************************
Transient Analysis `tran': time = (0 s -> 20 ns)
************************************************

Opening the PSF file ../psf/mc1_separate/002/tran.tran.tran ...

Notice from spectre during IC analysis, during transient analysis `tran', during Monte Carlo analysis `mc1'.
    GminDC = 1 pS is large enough to noticeably affect the DC solution.
        dV(I4.net2) = 101.841 mV
        Use the `gmin_check' option to eliminate or expand this report.
Warning from spectre during check, during IC analysis, during transient analysis `tran', during Monte Carlo analysis `mc1'.
    WARNING (CMI-2943): Parameter checks have been ignored because the valid value for parameter 'trise' could not be found in 'C0'.

DC simulation time: CPU = 348 us, elapsed = 347.853 us.
Important parameter values:
    start = 0 s
    outputstart = 0 s
    stop = 20 ns
    step = 20 ps
    maxstep = 200 ps
    ic = all
    useprevic = no
    skipdc = no
    reltol = 10e-06
    abstol(V) = 1 uV
    abstol(I) = 1 pA
    temp = 27 C
    tnom = 27 C
    tempeffects = all
    errpreset = conservative
    method = gear2only
    lteratio = 10
    relref = alllocal
    cmin = 0 F
    gmin = 1 pS
    rabsshort = 1 mOhm


Notice from spectre during transient analysis `tran', during Monte Carlo analysis `mc1'.
    Multithreading is disabled due to the size of the design being too small.


Output and IC/nodeset summary:
                 save   5       (current)
                 save   17      (voltage)

    tran: time = 509.1 ps    (2.55 %), step = 26.25 ps     (131 m%)
SOAC: I4.MND.soac_m1       modn V(B,PSUB): LEAVING@  0us ;
SOAC: I4.MND.soac_m1       modn V(B,PSUB): ENTERING@ 0.00117611us duration:0.00118us ;
    tran: time = 1.513 ns    (7.57 %), step = 18.07 ps    (90.3 m%)
    tran: time = 2.526 ns    (12.6 %), step = 27.43 ps     (137 m%)
    tran: time = 3.517 ns    (17.6 %), step = 25.42 ps     (127 m%)
SOAC: I4.MND.soac_m1       modn V(B,PSUB): LEAVING@  0.00310073us ;
    tran: time = 4.507 ns    (22.5 %), step = 48.63 ps     (243 m%)
SOAC: I4.MND.soac_m1       modn V(B,PSUB): ENTERING@ 0.0050251us duration:0.00192us ;
    tran: time = 5.502 ns    (27.5 %), step = 44.11 ps     (221 m%)
    tran: time = 6.508 ns    (32.5 %), step = 10.27 ps    (51.4 m%)
    tran: time = 7.523 ns    (37.6 %), step = 26 ps        (130 m%)
SOAC: I4.MND.soac_m1       modn V(B,PSUB): LEAVING@  0.00710072us ;
    tran: time = 8.508 ns    (42.5 %), step = 48.68 ps     (243 m%)
SOAC: I4.MND.soac_m1       modn V(B,PSUB): ENTERING@ 0.0090427us duration:0.00194us ;
    tran: time = 9.51 ns     (47.5 %), step = 33.26 ps     (166 m%)
    tran: time = 10.51 ns    (52.6 %), step = 24.01 ps     (120 m%)
    tran: time = 11.51 ns    (57.6 %), step = 15.88 ps    (79.4 m%)
    tran: time = 12.52 ns    (62.6 %), step = 61.72 ps     (309 m%)
SOAC: I4.MND.soac_m1       modn V(B,PSUB): LEAVING@  0.0120277us ;
SOAC: I4.MND.soac_m1       modn V(B,PSUB): ENTERING@ 0.0131118us duration:0.00108us ;
    tran: time = 13.54 ns    (67.7 %), step = 46.03 ps     (230 m%)
    tran: time = 14.52 ns    (72.6 %), step = 34.54 ps     (173 m%)
    tran: time = 15.51 ns    (77.5 %), step = 12.03 ps    (60.1 m%)
SOAC: I4.MND.soac_m1       modn V(B,PSUB): LEAVING@  0.0150041us ;
    tran: time = 16.51 ns    (82.6 %), step = 30.75 ps     (154 m%)
SOAC: I4.MND.soac_m1       modn V(B,PSUB): ENTERING@ 0.0171288us duration:0.00212us ;
    tran: time = 17.51 ns    (87.5 %), step = 64.26 ps     (321 m%)
    tran: time = 18.52 ns    (92.6 %), step = 34.53 ps     (173 m%)
    tran: time = 19.51 ns    (97.5 %), step = 27.81 ps     (139 m%)
Number of accepted tran steps =             2734

Maximum value achieved for any signal of each quantity: 
V: V(I4.net1) = 3.735 V
I: I(V:p) = 712.1 uA

~~~~~~~~~~~~~~~~~~~~~~~~~~~~~~~~~
Post-Transient Simulation Summary
~~~~~~~~~~~~~~~~~~~~~~~~~~~~~~~~~
   -   To further speed up simulation, consider
          add ++aps on command line
   -   Non-default settings that could significantly slow down simulation
          errpreset = conservative, default moderate
          reltol = 10e-06, default 100e-06 (conservative)
~~~~~~~~~~~~~~~~~~~~~~~~~~~~~~~~~


During simulation, the CPU load for active processors is :
         1 (9.2 %)       2 (44.4 %)      3 (2.5 %)       4 (1.8 %)
         5 (3.1 %)       6 (1.2 %)       8 (15.8 %)      9 (1.2 %)
        11 (1.9 %)      
        Total: 82.3%
Initial condition solution time: CPU = 365 us, elapsed = 365.973 us.
Intrinsic tran analysis time:    CPU = 248.037 ms, elapsed = 257.257 ms.
Total time required for tran analysis `tran': CPU = 249.745 ms, elapsed = 268.617 ms, util. = 93%.
Time accumulated: CPU = 992.452 ms, elapsed = 1.67085 s.
Peak resident memory used = 196 Mbytes.

finalTimeOP: writing operating point information to rawfile.

Opening the PSF file ../psf/mc1_separate/002/finalTimeOP.info ...
modelParameter: writing model parameter values to rawfile.

Opening the PSF file ../psf/mc1_separate/002/modelParameter.info ...
element: writing instance parameter values to rawfile.

Opening the PSF file ../psf/mc1_separate/002/element.info ...
outputParameter: writing output parameter values to rawfile.

Opening the PSF file ../psf/mc1_separate/002/outputParameter.info ...
designParamVals: writing netlist parameters to rawfile.

Opening the PSFASCII file ../psf/mc1_separate/002/designParamVals.info ...
primitives: writing primitives to rawfile.

Opening the PSFASCII file ../psf/mc1_separate/002/primitives.info.primitives ...
subckts: writing subcircuits to rawfile.

Opening the PSFASCII file ../psf/mc1_separate/002/subckts.info.subckts ...
3              2.02% 

************************************************
Transient Analysis `tran': time = (0 s -> 20 ns)
************************************************

Opening the PSF file ../psf/mc1_separate/003/tran.tran.tran ...

Notice from spectre during IC analysis, during transient analysis `tran', during Monte Carlo analysis `mc1'.
    GminDC = 1 pS is large enough to noticeably affect the DC solution.
        dV(I4.net2) = 101.841 mV
        Use the `gmin_check' option to eliminate or expand this report.
Warning from spectre during check, during IC analysis, during transient analysis `tran', during Monte Carlo analysis `mc1'.
    WARNING (CMI-2943): Parameter checks have been ignored because the valid value for parameter 'trise' could not be found in 'C0'.

DC simulation time: CPU = 361 us, elapsed = 364.065 us.
Important parameter values:
    start = 0 s
    outputstart = 0 s
    stop = 20 ns
    step = 20 ps
    maxstep = 200 ps
    ic = all
    useprevic = no
    skipdc = no
    reltol = 10e-06
    abstol(V) = 1 uV
    abstol(I) = 1 pA
    temp = 27 C
    tnom = 27 C
    tempeffects = all
    errpreset = conservative
    method = gear2only
    lteratio = 10
    relref = alllocal
    cmin = 0 F
    gmin = 1 pS
    rabsshort = 1 mOhm


Notice from spectre during transient analysis `tran', during Monte Carlo analysis `mc1'.
    Multithreading is disabled due to the size of the design being too small.


Output and IC/nodeset summary:
                 save   5       (current)
                 save   17      (voltage)

    tran: time = 509.1 ps    (2.55 %), step = 26.25 ps     (131 m%)
SOAC: I4.MND.soac_m1       modn V(B,PSUB): LEAVING@  0us ;
SOAC: I4.MND.soac_m1       modn V(B,PSUB): ENTERING@ 0.00117611us duration:0.00118us ;
    tran: time = 1.513 ns    (7.57 %), step = 18.07 ps    (90.3 m%)
    tran: time = 2.526 ns    (12.6 %), step = 27.43 ps     (137 m%)
    tran: time = 3.517 ns    (17.6 %), step = 25.42 ps     (127 m%)
SOAC: I4.MND.soac_m1       modn V(B,PSUB): LEAVING@  0.00310073us ;
    tran: time = 4.507 ns    (22.5 %), step = 48.63 ps     (243 m%)
SOAC: I4.MND.soac_m1       modn V(B,PSUB): ENTERING@ 0.0050251us duration:0.00192us ;
    tran: time = 5.502 ns    (27.5 %), step = 44.11 ps     (221 m%)
    tran: time = 6.508 ns    (32.5 %), step = 10.27 ps    (51.4 m%)
    tran: time = 7.523 ns    (37.6 %), step = 26 ps        (130 m%)
SOAC: I4.MND.soac_m1       modn V(B,PSUB): LEAVING@  0.00710072us ;
    tran: time = 8.508 ns    (42.5 %), step = 48.68 ps     (243 m%)
SOAC: I4.MND.soac_m1       modn V(B,PSUB): ENTERING@ 0.0090427us duration:0.00194us ;
    tran: time = 9.51 ns     (47.5 %), step = 33.26 ps     (166 m%)
    tran: time = 10.51 ns    (52.6 %), step = 24.01 ps     (120 m%)
    tran: time = 11.51 ns    (57.6 %), step = 15.88 ps    (79.4 m%)
    tran: time = 12.52 ns    (62.6 %), step = 61.72 ps     (309 m%)
SOAC: I4.MND.soac_m1       modn V(B,PSUB): LEAVING@  0.0120277us ;
SOAC: I4.MND.soac_m1       modn V(B,PSUB): ENTERING@ 0.0131118us duration:0.00108us ;
    tran: time = 13.54 ns    (67.7 %), step = 46.03 ps     (230 m%)
    tran: time = 14.52 ns    (72.6 %), step = 34.54 ps     (173 m%)
    tran: time = 15.51 ns    (77.5 %), step = 12.03 ps    (60.1 m%)
SOAC: I4.MND.soac_m1       modn V(B,PSUB): LEAVING@  0.0150041us ;
    tran: time = 16.51 ns    (82.6 %), step = 30.75 ps     (154 m%)
SOAC: I4.MND.soac_m1       modn V(B,PSUB): ENTERING@ 0.0171288us duration:0.00212us ;
    tran: time = 17.51 ns    (87.5 %), step = 64.26 ps     (321 m%)
    tran: time = 18.52 ns    (92.6 %), step = 34.53 ps     (173 m%)
    tran: time = 19.51 ns    (97.5 %), step = 27.81 ps     (139 m%)
Number of accepted tran steps =             2734

Maximum value achieved for any signal of each quantity: 
V: V(I4.net1) = 3.735 V
I: I(V:p) = 712.1 uA

~~~~~~~~~~~~~~~~~~~~~~~~~~~~~~~~~
Post-Transient Simulation Summary
~~~~~~~~~~~~~~~~~~~~~~~~~~~~~~~~~
   -   To further speed up simulation, consider
          add ++aps on command line
   -   Non-default settings that could significantly slow down simulation
          errpreset = conservative, default moderate
          reltol = 10e-06, default 100e-06 (conservative)
~~~~~~~~~~~~~~~~~~~~~~~~~~~~~~~~~


During simulation, the CPU load for active processors is :
         0 (1.0 %)       1 (8.2 %)       2 (37.1 %)      3 (3.1 %)
         4 (2.6 %)       5 (2.6 %)       6 (4.6 %)       8 (27.4 %)
         9 (1.5 %)      10 (1.0 %)      11 (2.6 %)      
        Total: 92.3%
Initial condition solution time: CPU = 377 us, elapsed = 380.993 us.
Intrinsic tran analysis time:    CPU = 258.557 ms, elapsed = 265.936 ms.
Total time required for tran analysis `tran': CPU = 260.096 ms, elapsed = 274.104 ms, util. = 94.9%.
Time accumulated: CPU = 1.26544 s, elapsed = 1.98693 s.
Peak resident memory used = 196 Mbytes.

finalTimeOP: writing operating point information to rawfile.

Opening the PSF file ../psf/mc1_separate/003/finalTimeOP.info ...
modelParameter: writing model parameter values to rawfile.

Opening the PSF file ../psf/mc1_separate/003/modelParameter.info ...
element: writing instance parameter values to rawfile.

Opening the PSF file ../psf/mc1_separate/003/element.info ...
outputParameter: writing output parameter values to rawfile.

Opening the PSF file ../psf/mc1_separate/003/outputParameter.info ...
designParamVals: writing netlist parameters to rawfile.

Opening the PSFASCII file ../psf/mc1_separate/003/designParamVals.info ...
primitives: writing primitives to rawfile.

Opening the PSFASCII file ../psf/mc1_separate/003/primitives.info.primitives ...
subckts: writing subcircuits to rawfile.

Opening the PSFASCII file ../psf/mc1_separate/003/subckts.info.subckts ...
4              3.03% 

************************************************
Transient Analysis `tran': time = (0 s -> 20 ns)
************************************************

Opening the PSF file ../psf/mc1_separate/004/tran.tran.tran ...

Notice from spectre during IC analysis, during transient analysis `tran', during Monte Carlo analysis `mc1'.
    GminDC = 1 pS is large enough to noticeably affect the DC solution.
        dV(I4.net2) = 101.841 mV
        Use the `gmin_check' option to eliminate or expand this report.
Warning from spectre during check, during IC analysis, during transient analysis `tran', during Monte Carlo analysis `mc1'.
    WARNING (CMI-2943): Parameter checks have been ignored because the valid value for parameter 'trise' could not be found in 'C0'.

DC simulation time: CPU = 372 us, elapsed = 375.032 us.
Important parameter values:
    start = 0 s
    outputstart = 0 s
    stop = 20 ns
    step = 20 ps
    maxstep = 200 ps
    ic = all
    useprevic = no
    skipdc = no
    reltol = 10e-06
    abstol(V) = 1 uV
    abstol(I) = 1 pA
    temp = 27 C
    tnom = 27 C
    tempeffects = all
    errpreset = conservative
    method = gear2only
    lteratio = 10
    relref = alllocal
    cmin = 0 F
    gmin = 1 pS
    rabsshort = 1 mOhm


Notice from spectre during transient analysis `tran', during Monte Carlo analysis `mc1'.
    Multithreading is disabled due to the size of the design being too small.


Output and IC/nodeset summary:
                 save   5       (current)
                 save   17      (voltage)

    tran: time = 509.1 ps    (2.55 %), step = 26.25 ps     (131 m%)
SOAC: I4.MND.soac_m1       modn V(B,PSUB): LEAVING@  0us ;
SOAC: I4.MND.soac_m1       modn V(B,PSUB): ENTERING@ 0.00117611us duration:0.00118us ;
    tran: time = 1.513 ns    (7.57 %), step = 18.07 ps    (90.3 m%)
    tran: time = 2.526 ns    (12.6 %), step = 27.43 ps     (137 m%)
    tran: time = 3.517 ns    (17.6 %), step = 25.42 ps     (127 m%)
SOAC: I4.MND.soac_m1       modn V(B,PSUB): LEAVING@  0.00310073us ;
    tran: time = 4.507 ns    (22.5 %), step = 48.63 ps     (243 m%)
SOAC: I4.MND.soac_m1       modn V(B,PSUB): ENTERING@ 0.0050251us duration:0.00192us ;
    tran: time = 5.502 ns    (27.5 %), step = 44.11 ps     (221 m%)
    tran: time = 6.508 ns    (32.5 %), step = 10.27 ps    (51.4 m%)
    tran: time = 7.523 ns    (37.6 %), step = 26 ps        (130 m%)
SOAC: I4.MND.soac_m1       modn V(B,PSUB): LEAVING@  0.00710072us ;
    tran: time = 8.508 ns    (42.5 %), step = 48.68 ps     (243 m%)
SOAC: I4.MND.soac_m1       modn V(B,PSUB): ENTERING@ 0.0090427us duration:0.00194us ;
    tran: time = 9.51 ns     (47.5 %), step = 33.26 ps     (166 m%)
    tran: time = 10.51 ns    (52.6 %), step = 24.01 ps     (120 m%)
    tran: time = 11.51 ns    (57.6 %), step = 15.88 ps    (79.4 m%)
    tran: time = 12.52 ns    (62.6 %), step = 61.72 ps     (309 m%)
SOAC: I4.MND.soac_m1       modn V(B,PSUB): LEAVING@  0.0120277us ;
SOAC: I4.MND.soac_m1       modn V(B,PSUB): ENTERING@ 0.0131118us duration:0.00108us ;
    tran: time = 13.54 ns    (67.7 %), step = 46.03 ps     (230 m%)
    tran: time = 14.52 ns    (72.6 %), step = 34.54 ps     (173 m%)
    tran: time = 15.51 ns    (77.5 %), step = 12.03 ps    (60.1 m%)
SOAC: I4.MND.soac_m1       modn V(B,PSUB): LEAVING@  0.0150041us ;
    tran: time = 16.51 ns    (82.6 %), step = 30.75 ps     (154 m%)
SOAC: I4.MND.soac_m1       modn V(B,PSUB): ENTERING@ 0.0171288us duration:0.00212us ;
    tran: time = 17.51 ns    (87.5 %), step = 64.26 ps     (321 m%)
    tran: time = 18.52 ns    (92.6 %), step = 34.53 ps     (173 m%)
    tran: time = 19.51 ns    (97.5 %), step = 27.81 ps     (139 m%)
Number of accepted tran steps =             2734

Maximum value achieved for any signal of each quantity: 
V: V(I4.net1) = 3.735 V
I: I(V:p) = 712.1 uA

~~~~~~~~~~~~~~~~~~~~~~~~~~~~~~~~~
Post-Transient Simulation Summary
~~~~~~~~~~~~~~~~~~~~~~~~~~~~~~~~~
   -   To further speed up simulation, consider
          add ++aps on command line
   -   Non-default settings that could significantly slow down simulation
          errpreset = conservative, default moderate
          reltol = 10e-06, default 100e-06 (conservative)
~~~~~~~~~~~~~~~~~~~~~~~~~~~~~~~~~


During simulation, the CPU load for active processors is :
         0 (2.6 %)       1 (8.7 %)       2 (32.0 %)      3 (3.9 %)
         4 (13.5 %)      5 (4.4 %)       6 (7.9 %)       7 (1.8 %)
         8 (25.3 %)      9 (2.2 %)      11 (7.9 %)      
        Total: 111.1%
Initial condition solution time: CPU = 388 us, elapsed = 392.914 us.
Intrinsic tran analysis time:    CPU = 275.306 ms, elapsed = 282.53 ms.
Total time required for tran analysis `tran': CPU = 277.034 ms, elapsed = 291.267 ms, util. = 95.1%.
Time accumulated: CPU = 1.56333 s, elapsed = 2.32322 s.
Peak resident memory used = 196 Mbytes.

finalTimeOP: writing operating point information to rawfile.

Opening the PSF file ../psf/mc1_separate/004/finalTimeOP.info ...
modelParameter: writing model parameter values to rawfile.

Opening the PSF file ../psf/mc1_separate/004/modelParameter.info ...
element: writing instance parameter values to rawfile.

Opening the PSF file ../psf/mc1_separate/004/element.info ...
outputParameter: writing output parameter values to rawfile.

Opening the PSF file ../psf/mc1_separate/004/outputParameter.info ...
designParamVals: writing netlist parameters to rawfile.

Opening the PSFASCII file ../psf/mc1_separate/004/designParamVals.info ...
primitives: writing primitives to rawfile.

Opening the PSFASCII file ../psf/mc1_separate/004/primitives.info.primitives ...
subckts: writing subcircuits to rawfile.

Opening the PSFASCII file ../psf/mc1_separate/004/subckts.info.subckts ...
    mc1: iteration = 4           (3.03 %), step = 1            (1.01 %)
5              4.04% 

************************************************
Transient Analysis `tran': time = (0 s -> 20 ns)
************************************************

Opening the PSF file ../psf/mc1_separate/005/tran.tran.tran ...

Notice from spectre during IC analysis, during transient analysis `tran', during Monte Carlo analysis `mc1'.
    GminDC = 1 pS is large enough to noticeably affect the DC solution.
        dV(I4.net2) = 101.841 mV
        Use the `gmin_check' option to eliminate or expand this report.
Warning from spectre during check, during IC analysis, during transient analysis `tran', during Monte Carlo analysis `mc1'.
    WARNING (CMI-2943): Parameter checks have been ignored because the valid value for parameter 'trise' could not be found in 'C0'.

DC simulation time: CPU = 612 us, elapsed = 619.173 us.
Important parameter values:
    start = 0 s
    outputstart = 0 s
    stop = 20 ns
    step = 20 ps
    maxstep = 200 ps
    ic = all
    useprevic = no
    skipdc = no
    reltol = 10e-06
    abstol(V) = 1 uV
    abstol(I) = 1 pA
    temp = 27 C
    tnom = 27 C
    tempeffects = all
    errpreset = conservative
    method = gear2only
    lteratio = 10
    relref = alllocal
    cmin = 0 F
    gmin = 1 pS
    rabsshort = 1 mOhm


Notice from spectre during transient analysis `tran', during Monte Carlo analysis `mc1'.
    Multithreading is disabled due to the size of the design being too small.


Output and IC/nodeset summary:
                 save   5       (current)
                 save   17      (voltage)

    tran: time = 509.1 ps    (2.55 %), step = 26.25 ps     (131 m%)
SOAC: I4.MND.soac_m1       modn V(B,PSUB): LEAVING@  0us ;
SOAC: I4.MND.soac_m1       modn V(B,PSUB): ENTERING@ 0.00117611us duration:0.00118us ;
    tran: time = 1.513 ns    (7.57 %), step = 18.07 ps    (90.3 m%)
    tran: time = 2.526 ns    (12.6 %), step = 27.43 ps     (137 m%)
    tran: time = 3.517 ns    (17.6 %), step = 25.42 ps     (127 m%)
SOAC: I4.MND.soac_m1       modn V(B,PSUB): LEAVING@  0.00310073us ;
    tran: time = 4.507 ns    (22.5 %), step = 48.63 ps     (243 m%)
SOAC: I4.MND.soac_m1       modn V(B,PSUB): ENTERING@ 0.0050251us duration:0.00192us ;
    tran: time = 5.502 ns    (27.5 %), step = 44.11 ps     (221 m%)
    tran: time = 6.508 ns    (32.5 %), step = 10.27 ps    (51.4 m%)
    tran: time = 7.523 ns    (37.6 %), step = 26 ps        (130 m%)
SOAC: I4.MND.soac_m1       modn V(B,PSUB): LEAVING@  0.00710072us ;
    tran: time = 8.508 ns    (42.5 %), step = 48.68 ps     (243 m%)
SOAC: I4.MND.soac_m1       modn V(B,PSUB): ENTERING@ 0.0090427us duration:0.00194us ;
    tran: time = 9.51 ns     (47.5 %), step = 33.26 ps     (166 m%)
    tran: time = 10.51 ns    (52.6 %), step = 24.01 ps     (120 m%)
    tran: time = 11.51 ns    (57.6 %), step = 15.88 ps    (79.4 m%)
    tran: time = 12.52 ns    (62.6 %), step = 61.72 ps     (309 m%)
SOAC: I4.MND.soac_m1       modn V(B,PSUB): LEAVING@  0.0120277us ;
SOAC: I4.MND.soac_m1       modn V(B,PSUB): ENTERING@ 0.0131118us duration:0.00108us ;
    tran: time = 13.54 ns    (67.7 %), step = 46.03 ps     (230 m%)
    tran: time = 14.52 ns    (72.6 %), step = 34.54 ps     (173 m%)
    tran: time = 15.51 ns    (77.5 %), step = 12.03 ps    (60.1 m%)
SOAC: I4.MND.soac_m1       modn V(B,PSUB): LEAVING@  0.0150041us ;
    tran: time = 16.51 ns    (82.6 %), step = 30.75 ps     (154 m%)
SOAC: I4.MND.soac_m1       modn V(B,PSUB): ENTERING@ 0.0171288us duration:0.00212us ;
    tran: time = 17.51 ns    (87.5 %), step = 64.26 ps     (321 m%)
    tran: time = 18.52 ns    (92.6 %), step = 34.53 ps     (173 m%)
    tran: time = 19.51 ns    (97.5 %), step = 27.81 ps     (139 m%)
Number of accepted tran steps =             2734

Maximum value achieved for any signal of each quantity: 
V: V(I4.net1) = 3.735 V
I: I(V:p) = 712.1 uA

~~~~~~~~~~~~~~~~~~~~~~~~~~~~~~~~~
Post-Transient Simulation Summary
~~~~~~~~~~~~~~~~~~~~~~~~~~~~~~~~~
   -   To further speed up simulation, consider
          add ++aps on command line
   -   Non-default settings that could significantly slow down simulation
          errpreset = conservative, default moderate
          reltol = 10e-06, default 100e-06 (conservative)
~~~~~~~~~~~~~~~~~~~~~~~~~~~~~~~~~


During simulation, the CPU load for active processors is :
         0 (7.6 %)       1 (8.0 %)       2 (28.5 %)      3 (3.8 %)
         4 (22.3 %)      5 (4.6 %)       6 (10.7 %)      7 (1.9 %)
         8 (22.5 %)      9 (2.3 %)      10 (1.2 %)      11 (7.7 %)
        Total: 121.1%
Initial condition solution time: CPU = 635 us, elapsed = 643.969 us.
Intrinsic tran analysis time:    CPU = 263.382 ms, elapsed = 269.695 ms.
Total time required for tran analysis `tran': CPU = 265.554 ms, elapsed = 278.513 ms, util. = 95.3%.
Time accumulated: CPU = 1.84439 s, elapsed = 2.64188 s.
Peak resident memory used = 196 Mbytes.

finalTimeOP: writing operating point information to rawfile.

Opening the PSF file ../psf/mc1_separate/005/finalTimeOP.info ...
modelParameter: writing model parameter values to rawfile.

Opening the PSF file ../psf/mc1_separate/005/modelParameter.info ...
element: writing instance parameter values to rawfile.

Opening the PSF file ../psf/mc1_separate/005/element.info ...
outputParameter: writing output parameter values to rawfile.

Opening the PSF file ../psf/mc1_separate/005/outputParameter.info ...
designParamVals: writing netlist parameters to rawfile.

Opening the PSFASCII file ../psf/mc1_separate/005/designParamVals.info ...
primitives: writing primitives to rawfile.

Opening the PSFASCII file ../psf/mc1_separate/005/primitives.info.primitives ...
subckts: writing subcircuits to rawfile.

Opening the PSFASCII file ../psf/mc1_separate/005/subckts.info.subckts ...
    mc1: iteration = 5           (4.04 %), step = 1            (1.01 %)
6              5.05% 

************************************************
Transient Analysis `tran': time = (0 s -> 20 ns)
************************************************

Opening the PSF file ../psf/mc1_separate/006/tran.tran.tran ...

Notice from spectre during IC analysis, during transient analysis `tran', during Monte Carlo analysis `mc1'.
    GminDC = 1 pS is large enough to noticeably affect the DC solution.
        dV(I4.net2) = 101.841 mV
        Use the `gmin_check' option to eliminate or expand this report.
Warning from spectre during check, during IC analysis, during transient analysis `tran', during Monte Carlo analysis `mc1'.
    WARNING (CMI-2943): Parameter checks have been ignored because the valid value for parameter 'trise' could not be found in 'C0'.

DC simulation time: CPU = 364 us, elapsed = 364.065 us.
Important parameter values:
    start = 0 s
    outputstart = 0 s
    stop = 20 ns
    step = 20 ps
    maxstep = 200 ps
    ic = all
    useprevic = no
    skipdc = no
    reltol = 10e-06
    abstol(V) = 1 uV
    abstol(I) = 1 pA
    temp = 27 C
    tnom = 27 C
    tempeffects = all
    errpreset = conservative
    method = gear2only
    lteratio = 10
    relref = alllocal
    cmin = 0 F
    gmin = 1 pS
    rabsshort = 1 mOhm


Notice from spectre during transient analysis `tran', during Monte Carlo analysis `mc1'.
    Multithreading is disabled due to the size of the design being too small.


Output and IC/nodeset summary:
                 save   5       (current)
                 save   17      (voltage)

    tran: time = 509.1 ps    (2.55 %), step = 26.25 ps     (131 m%)
SOAC: I4.MND.soac_m1       modn V(B,PSUB): LEAVING@  0us ;
SOAC: I4.MND.soac_m1       modn V(B,PSUB): ENTERING@ 0.00117611us duration:0.00118us ;
    tran: time = 1.513 ns    (7.57 %), step = 18.07 ps    (90.3 m%)
    tran: time = 2.526 ns    (12.6 %), step = 27.43 ps     (137 m%)
    tran: time = 3.517 ns    (17.6 %), step = 25.42 ps     (127 m%)
SOAC: I4.MND.soac_m1       modn V(B,PSUB): LEAVING@  0.00310073us ;
    tran: time = 4.507 ns    (22.5 %), step = 48.63 ps     (243 m%)
SOAC: I4.MND.soac_m1       modn V(B,PSUB): ENTERING@ 0.0050251us duration:0.00192us ;
    tran: time = 5.502 ns    (27.5 %), step = 44.11 ps     (221 m%)
    tran: time = 6.508 ns    (32.5 %), step = 10.27 ps    (51.4 m%)
    tran: time = 7.523 ns    (37.6 %), step = 26 ps        (130 m%)
SOAC: I4.MND.soac_m1       modn V(B,PSUB): LEAVING@  0.00710072us ;
    tran: time = 8.508 ns    (42.5 %), step = 48.68 ps     (243 m%)
SOAC: I4.MND.soac_m1       modn V(B,PSUB): ENTERING@ 0.0090427us duration:0.00194us ;
    tran: time = 9.51 ns     (47.5 %), step = 33.26 ps     (166 m%)
    tran: time = 10.51 ns    (52.6 %), step = 24.01 ps     (120 m%)
    tran: time = 11.51 ns    (57.6 %), step = 15.88 ps    (79.4 m%)
    tran: time = 12.52 ns    (62.6 %), step = 61.72 ps     (309 m%)
SOAC: I4.MND.soac_m1       modn V(B,PSUB): LEAVING@  0.0120277us ;
SOAC: I4.MND.soac_m1       modn V(B,PSUB): ENTERING@ 0.0131118us duration:0.00108us ;
    tran: time = 13.54 ns    (67.7 %), step = 46.03 ps     (230 m%)
    tran: time = 14.52 ns    (72.6 %), step = 34.54 ps     (173 m%)
    tran: time = 15.51 ns    (77.5 %), step = 12.03 ps    (60.1 m%)
SOAC: I4.MND.soac_m1       modn V(B,PSUB): LEAVING@  0.0150041us ;
    tran: time = 16.51 ns    (82.6 %), step = 30.75 ps     (154 m%)
SOAC: I4.MND.soac_m1       modn V(B,PSUB): ENTERING@ 0.0171288us duration:0.00212us ;
    tran: time = 17.51 ns    (87.5 %), step = 64.26 ps     (321 m%)
    tran: time = 18.52 ns    (92.6 %), step = 34.53 ps     (173 m%)
    tran: time = 19.51 ns    (97.5 %), step = 27.81 ps     (139 m%)
Number of accepted tran steps =             2734

Maximum value achieved for any signal of each quantity: 
V: V(I4.net1) = 3.735 V
I: I(V:p) = 712.1 uA

~~~~~~~~~~~~~~~~~~~~~~~~~~~~~~~~~
Post-Transient Simulation Summary
~~~~~~~~~~~~~~~~~~~~~~~~~~~~~~~~~
   -   To further speed up simulation, consider
          add ++aps on command line
   -   Non-default settings that could significantly slow down simulation
          errpreset = conservative, default moderate
          reltol = 10e-06, default 100e-06 (conservative)
~~~~~~~~~~~~~~~~~~~~~~~~~~~~~~~~~


During simulation, the CPU load for active processors is :
         0 (6.8 %)       1 (7.2 %)       2 (26.7 %)      3 (3.8 %)
         4 (29.7 %)      5 (4.1 %)       6 (9.9 %)       7 (2.7 %)
         8 (25.8 %)      9 (2.7 %)      10 (1.4 %)      11 (7.2 %)
        Total: 127.9%
Initial condition solution time: CPU = 382 us, elapsed = 384.092 us.
Intrinsic tran analysis time:    CPU = 268.509 ms, elapsed = 276.468 ms.
Total time required for tran analysis `tran': CPU = 270.121 ms, elapsed = 286.177 ms, util. = 94.4%.
Time accumulated: CPU = 2.12831 s, elapsed = 2.9669 s.
Peak resident memory used = 196 Mbytes.

finalTimeOP: writing operating point information to rawfile.

Opening the PSF file ../psf/mc1_separate/006/finalTimeOP.info ...
modelParameter: writing model parameter values to rawfile.

Opening the PSF file ../psf/mc1_separate/006/modelParameter.info ...
element: writing instance parameter values to rawfile.

Opening the PSF file ../psf/mc1_separate/006/element.info ...
outputParameter: writing output parameter values to rawfile.

Opening the PSF file ../psf/mc1_separate/006/outputParameter.info ...
designParamVals: writing netlist parameters to rawfile.

Opening the PSFASCII file ../psf/mc1_separate/006/designParamVals.info ...
primitives: writing primitives to rawfile.

Opening the PSFASCII file ../psf/mc1_separate/006/primitives.info.primitives ...
subckts: writing subcircuits to rawfile.

Opening the PSFASCII file ../psf/mc1_separate/006/subckts.info.subckts ...
    mc1: iteration = 6           (5.05 %), step = 1            (1.01 %)
7              6.06% 

************************************************
Transient Analysis `tran': time = (0 s -> 20 ns)
************************************************

Opening the PSF file ../psf/mc1_separate/007/tran.tran.tran ...

Notice from spectre during IC analysis, during transient analysis `tran', during Monte Carlo analysis `mc1'.
    GminDC = 1 pS is large enough to noticeably affect the DC solution.
        dV(I4.net2) = 101.841 mV
        Use the `gmin_check' option to eliminate or expand this report.
Warning from spectre during check, during IC analysis, during transient analysis `tran', during Monte Carlo analysis `mc1'.
    WARNING (CMI-2943): Parameter checks have been ignored because the valid value for parameter 'trise' could not be found in 'C0'.

DC simulation time: CPU = 362 us, elapsed = 362.158 us.
Important parameter values:
    start = 0 s
    outputstart = 0 s
    stop = 20 ns
    step = 20 ps
    maxstep = 200 ps
    ic = all
    useprevic = no
    skipdc = no
    reltol = 10e-06
    abstol(V) = 1 uV
    abstol(I) = 1 pA
    temp = 27 C
    tnom = 27 C
    tempeffects = all
    errpreset = conservative
    method = gear2only
    lteratio = 10
    relref = alllocal
    cmin = 0 F
    gmin = 1 pS
    rabsshort = 1 mOhm


Notice from spectre during transient analysis `tran', during Monte Carlo analysis `mc1'.
    Multithreading is disabled due to the size of the design being too small.


Output and IC/nodeset summary:
                 save   5       (current)
                 save   17      (voltage)

    tran: time = 509.1 ps    (2.55 %), step = 26.25 ps     (131 m%)
SOAC: I4.MND.soac_m1       modn V(B,PSUB): LEAVING@  0us ;
SOAC: I4.MND.soac_m1       modn V(B,PSUB): ENTERING@ 0.00117611us duration:0.00118us ;
    tran: time = 1.513 ns    (7.57 %), step = 18.07 ps    (90.3 m%)
    tran: time = 2.526 ns    (12.6 %), step = 27.43 ps     (137 m%)
    tran: time = 3.517 ns    (17.6 %), step = 25.42 ps     (127 m%)
SOAC: I4.MND.soac_m1       modn V(B,PSUB): LEAVING@  0.00310073us ;
    tran: time = 4.507 ns    (22.5 %), step = 48.63 ps     (243 m%)
SOAC: I4.MND.soac_m1       modn V(B,PSUB): ENTERING@ 0.0050251us duration:0.00192us ;
    tran: time = 5.502 ns    (27.5 %), step = 44.11 ps     (221 m%)
    tran: time = 6.508 ns    (32.5 %), step = 10.27 ps    (51.4 m%)
    tran: time = 7.523 ns    (37.6 %), step = 26 ps        (130 m%)
SOAC: I4.MND.soac_m1       modn V(B,PSUB): LEAVING@  0.00710072us ;
    tran: time = 8.508 ns    (42.5 %), step = 48.68 ps     (243 m%)
SOAC: I4.MND.soac_m1       modn V(B,PSUB): ENTERING@ 0.0090427us duration:0.00194us ;
    tran: time = 9.51 ns     (47.5 %), step = 33.26 ps     (166 m%)
    tran: time = 10.51 ns    (52.6 %), step = 24.01 ps     (120 m%)
    tran: time = 11.51 ns    (57.6 %), step = 15.88 ps    (79.4 m%)
    tran: time = 12.52 ns    (62.6 %), step = 61.72 ps     (309 m%)
SOAC: I4.MND.soac_m1       modn V(B,PSUB): LEAVING@  0.0120277us ;
SOAC: I4.MND.soac_m1       modn V(B,PSUB): ENTERING@ 0.0131118us duration:0.00108us ;
    tran: time = 13.54 ns    (67.7 %), step = 46.03 ps     (230 m%)
    tran: time = 14.52 ns    (72.6 %), step = 34.54 ps     (173 m%)
    tran: time = 15.51 ns    (77.5 %), step = 12.03 ps    (60.1 m%)
SOAC: I4.MND.soac_m1       modn V(B,PSUB): LEAVING@  0.0150041us ;
    tran: time = 16.51 ns    (82.6 %), step = 30.75 ps     (154 m%)
SOAC: I4.MND.soac_m1       modn V(B,PSUB): ENTERING@ 0.0171288us duration:0.00212us ;
    tran: time = 17.51 ns    (87.5 %), step = 64.26 ps     (321 m%)
    tran: time = 18.52 ns    (92.6 %), step = 34.53 ps     (173 m%)
    tran: time = 19.51 ns    (97.5 %), step = 27.81 ps     (139 m%)
Number of accepted tran steps =             2734

Maximum value achieved for any signal of each quantity: 
V: V(I4.net1) = 3.735 V
I: I(V:p) = 712.1 uA

~~~~~~~~~~~~~~~~~~~~~~~~~~~~~~~~~
Post-Transient Simulation Summary
~~~~~~~~~~~~~~~~~~~~~~~~~~~~~~~~~
   -   To further speed up simulation, consider
          add ++aps on command line
   -   Non-default settings that could significantly slow down simulation
          errpreset = conservative, default moderate
          reltol = 10e-06, default 100e-06 (conservative)
~~~~~~~~~~~~~~~~~~~~~~~~~~~~~~~~~


During simulation, the CPU load for active processors is :
         0 (6.1 %)       1 (6.4 %)       2 (23.9 %)      3 (4.0 %)
         4 (27.0 %)      5 (13.1 %)      6 (8.9 %)       7 (2.8 %)
         8 (23.2 %)      9 (2.5 %)      10 (1.2 %)      11 (6.7 %)
        Total: 125.8%
Initial condition solution time: CPU = 379 us, elapsed = 380.039 us.
Intrinsic tran analysis time:    CPU = 270.602 ms, elapsed = 279.176 ms.
Total time required for tran analysis `tran': CPU = 272.197 ms, elapsed = 290.26 ms, util. = 93.8%.
Time accumulated: CPU = 2.41677 s, elapsed = 3.30384 s.
Peak resident memory used = 196 Mbytes.

finalTimeOP: writing operating point information to rawfile.

Opening the PSF file ../psf/mc1_separate/007/finalTimeOP.info ...
modelParameter: writing model parameter values to rawfile.

Opening the PSF file ../psf/mc1_separate/007/modelParameter.info ...
element: writing instance parameter values to rawfile.

Opening the PSF file ../psf/mc1_separate/007/element.info ...
outputParameter: writing output parameter values to rawfile.

Opening the PSF file ../psf/mc1_separate/007/outputParameter.info ...
designParamVals: writing netlist parameters to rawfile.

Opening the PSFASCII file ../psf/mc1_separate/007/designParamVals.info ...
primitives: writing primitives to rawfile.

Opening the PSFASCII file ../psf/mc1_separate/007/primitives.info.primitives ...
subckts: writing subcircuits to rawfile.

Opening the PSFASCII file ../psf/mc1_separate/007/subckts.info.subckts ...
    mc1: iteration = 7           (6.06 %), step = 1            (1.01 %)
8              7.07% 

************************************************
Transient Analysis `tran': time = (0 s -> 20 ns)
************************************************

Opening the PSF file ../psf/mc1_separate/008/tran.tran.tran ...

Notice from spectre during IC analysis, during transient analysis `tran', during Monte Carlo analysis `mc1'.
    GminDC = 1 pS is large enough to noticeably affect the DC solution.
        dV(I4.net2) = 101.841 mV
        Use the `gmin_check' option to eliminate or expand this report.
Warning from spectre during check, during IC analysis, during transient analysis `tran', during Monte Carlo analysis `mc1'.
    WARNING (CMI-2943): Parameter checks have been ignored because the valid value for parameter 'trise' could not be found in 'C0'.

DC simulation time: CPU = 447 us, elapsed = 449.896 us.
Important parameter values:
    start = 0 s
    outputstart = 0 s
    stop = 20 ns
    step = 20 ps
    maxstep = 200 ps
    ic = all
    useprevic = no
    skipdc = no
    reltol = 10e-06
    abstol(V) = 1 uV
    abstol(I) = 1 pA
    temp = 27 C
    tnom = 27 C
    tempeffects = all
    errpreset = conservative
    method = gear2only
    lteratio = 10
    relref = alllocal
    cmin = 0 F
    gmin = 1 pS
    rabsshort = 1 mOhm


Notice from spectre during transient analysis `tran', during Monte Carlo analysis `mc1'.
    Multithreading is disabled due to the size of the design being too small.


Output and IC/nodeset summary:
                 save   5       (current)
                 save   17      (voltage)

    tran: time = 509.1 ps    (2.55 %), step = 26.25 ps     (131 m%)
SOAC: I4.MND.soac_m1       modn V(B,PSUB): LEAVING@  0us ;
SOAC: I4.MND.soac_m1       modn V(B,PSUB): ENTERING@ 0.00117611us duration:0.00118us ;
    tran: time = 1.513 ns    (7.57 %), step = 18.07 ps    (90.3 m%)
    tran: time = 2.526 ns    (12.6 %), step = 27.43 ps     (137 m%)
    tran: time = 3.517 ns    (17.6 %), step = 25.42 ps     (127 m%)
SOAC: I4.MND.soac_m1       modn V(B,PSUB): LEAVING@  0.00310073us ;
    tran: time = 4.507 ns    (22.5 %), step = 48.63 ps     (243 m%)
SOAC: I4.MND.soac_m1       modn V(B,PSUB): ENTERING@ 0.0050251us duration:0.00192us ;
    tran: time = 5.502 ns    (27.5 %), step = 44.11 ps     (221 m%)
    tran: time = 6.508 ns    (32.5 %), step = 10.27 ps    (51.4 m%)
    tran: time = 7.523 ns    (37.6 %), step = 26 ps        (130 m%)
SOAC: I4.MND.soac_m1       modn V(B,PSUB): LEAVING@  0.00710072us ;
    tran: time = 8.508 ns    (42.5 %), step = 48.68 ps     (243 m%)
SOAC: I4.MND.soac_m1       modn V(B,PSUB): ENTERING@ 0.0090427us duration:0.00194us ;
    tran: time = 9.51 ns     (47.5 %), step = 33.26 ps     (166 m%)
    tran: time = 10.51 ns    (52.6 %), step = 24.01 ps     (120 m%)
    tran: time = 11.51 ns    (57.6 %), step = 15.88 ps    (79.4 m%)
    tran: time = 12.52 ns    (62.6 %), step = 61.72 ps     (309 m%)
SOAC: I4.MND.soac_m1       modn V(B,PSUB): LEAVING@  0.0120277us ;
SOAC: I4.MND.soac_m1       modn V(B,PSUB): ENTERING@ 0.0131118us duration:0.00108us ;
    tran: time = 13.54 ns    (67.7 %), step = 46.03 ps     (230 m%)
    tran: time = 14.52 ns    (72.6 %), step = 34.54 ps     (173 m%)
    tran: time = 15.51 ns    (77.5 %), step = 12.03 ps    (60.1 m%)
SOAC: I4.MND.soac_m1       modn V(B,PSUB): LEAVING@  0.0150041us ;
    tran: time = 16.51 ns    (82.6 %), step = 30.75 ps     (154 m%)
SOAC: I4.MND.soac_m1       modn V(B,PSUB): ENTERING@ 0.0171288us duration:0.00212us ;
    tran: time = 17.51 ns    (87.5 %), step = 64.26 ps     (321 m%)
    tran: time = 18.52 ns    (92.6 %), step = 34.53 ps     (173 m%)
    tran: time = 19.51 ns    (97.5 %), step = 27.81 ps     (139 m%)
Number of accepted tran steps =             2734

Maximum value achieved for any signal of each quantity: 
V: V(I4.net1) = 3.735 V
I: I(V:p) = 712.1 uA

~~~~~~~~~~~~~~~~~~~~~~~~~~~~~~~~~
Post-Transient Simulation Summary
~~~~~~~~~~~~~~~~~~~~~~~~~~~~~~~~~
   -   To further speed up simulation, consider
          add ++aps on command line
   -   Non-default settings that could significantly slow down simulation
          errpreset = conservative, default moderate
          reltol = 10e-06, default 100e-06 (conservative)
~~~~~~~~~~~~~~~~~~~~~~~~~~~~~~~~~


During simulation, the CPU load for active processors is :
         0 (5.5 %)       1 (5.9 %)       2 (21.8 %)      3 (3.6 %)
         4 (24.5 %)      5 (19.7 %)      6 (8.1 %)       7 (2.5 %)
         8 (21.1 %)      9 (2.2 %)      10 (1.1 %)      11 (6.1 %)
        Total: 122.1%
Initial condition solution time: CPU = 465 us, elapsed = 468.016 us.
Intrinsic tran analysis time:    CPU = 261.087 ms, elapsed = 270.537 ms.
Total time required for tran analysis `tran': CPU = 262.91 ms, elapsed = 281.027 ms, util. = 93.6%.
Time accumulated: CPU = 2.69428 s, elapsed = 3.62971 s.
Peak resident memory used = 196 Mbytes.

finalTimeOP: writing operating point information to rawfile.

Opening the PSF file ../psf/mc1_separate/008/finalTimeOP.info ...
modelParameter: writing model parameter values to rawfile.

Opening the PSF file ../psf/mc1_separate/008/modelParameter.info ...
element: writing instance parameter values to rawfile.

Opening the PSF file ../psf/mc1_separate/008/element.info ...
outputParameter: writing output parameter values to rawfile.

Opening the PSF file ../psf/mc1_separate/008/outputParameter.info ...
designParamVals: writing netlist parameters to rawfile.

Opening the PSFASCII file ../psf/mc1_separate/008/designParamVals.info ...
primitives: writing primitives to rawfile.

Opening the PSFASCII file ../psf/mc1_separate/008/primitives.info.primitives ...
subckts: writing subcircuits to rawfile.

Opening the PSFASCII file ../psf/mc1_separate/008/subckts.info.subckts ...
    mc1: iteration = 8           (7.07 %), step = 1            (1.01 %)
9              8.08% 

************************************************
Transient Analysis `tran': time = (0 s -> 20 ns)
************************************************

Opening the PSF file ../psf/mc1_separate/009/tran.tran.tran ...

Notice from spectre during IC analysis, during transient analysis `tran', during Monte Carlo analysis `mc1'.
    GminDC = 1 pS is large enough to noticeably affect the DC solution.
        dV(I4.net2) = 101.841 mV
        Use the `gmin_check' option to eliminate or expand this report.
Warning from spectre during check, during IC analysis, during transient analysis `tran', during Monte Carlo analysis `mc1'.
    WARNING (CMI-2943): Parameter checks have been ignored because the valid value for parameter 'trise' could not be found in 'C0'.

DC simulation time: CPU = 523 us, elapsed = 522.852 us.
Important parameter values:
    start = 0 s
    outputstart = 0 s
    stop = 20 ns
    step = 20 ps
    maxstep = 200 ps
    ic = all
    useprevic = no
    skipdc = no
    reltol = 10e-06
    abstol(V) = 1 uV
    abstol(I) = 1 pA
    temp = 27 C
    tnom = 27 C
    tempeffects = all
    errpreset = conservative
    method = gear2only
    lteratio = 10
    relref = alllocal
    cmin = 0 F
    gmin = 1 pS
    rabsshort = 1 mOhm


Notice from spectre during transient analysis `tran', during Monte Carlo analysis `mc1'.
    Multithreading is disabled due to the size of the design being too small.


Output and IC/nodeset summary:
                 save   5       (current)
                 save   17      (voltage)

    tran: time = 509.1 ps    (2.55 %), step = 26.25 ps     (131 m%)
SOAC: I4.MND.soac_m1       modn V(B,PSUB): LEAVING@  0us ;
SOAC: I4.MND.soac_m1       modn V(B,PSUB): ENTERING@ 0.00117611us duration:0.00118us ;
    tran: time = 1.513 ns    (7.57 %), step = 18.07 ps    (90.3 m%)
    tran: time = 2.526 ns    (12.6 %), step = 27.43 ps     (137 m%)
    tran: time = 3.517 ns    (17.6 %), step = 25.42 ps     (127 m%)
SOAC: I4.MND.soac_m1       modn V(B,PSUB): LEAVING@  0.00310073us ;
    tran: time = 4.507 ns    (22.5 %), step = 48.63 ps     (243 m%)
SOAC: I4.MND.soac_m1       modn V(B,PSUB): ENTERING@ 0.0050251us duration:0.00192us ;
    tran: time = 5.502 ns    (27.5 %), step = 44.11 ps     (221 m%)
    tran: time = 6.508 ns    (32.5 %), step = 10.27 ps    (51.4 m%)
    tran: time = 7.523 ns    (37.6 %), step = 26 ps        (130 m%)
SOAC: I4.MND.soac_m1       modn V(B,PSUB): LEAVING@  0.00710072us ;
    tran: time = 8.508 ns    (42.5 %), step = 48.68 ps     (243 m%)
SOAC: I4.MND.soac_m1       modn V(B,PSUB): ENTERING@ 0.0090427us duration:0.00194us ;
    tran: time = 9.51 ns     (47.5 %), step = 33.26 ps     (166 m%)
    tran: time = 10.51 ns    (52.6 %), step = 24.01 ps     (120 m%)
    tran: time = 11.51 ns    (57.6 %), step = 15.88 ps    (79.4 m%)
    tran: time = 12.52 ns    (62.6 %), step = 61.72 ps     (309 m%)
SOAC: I4.MND.soac_m1       modn V(B,PSUB): LEAVING@  0.0120277us ;
SOAC: I4.MND.soac_m1       modn V(B,PSUB): ENTERING@ 0.0131118us duration:0.00108us ;
    tran: time = 13.54 ns    (67.7 %), step = 46.03 ps     (230 m%)
    tran: time = 14.52 ns    (72.6 %), step = 34.54 ps     (173 m%)
    tran: time = 15.51 ns    (77.5 %), step = 12.03 ps    (60.1 m%)
SOAC: I4.MND.soac_m1       modn V(B,PSUB): LEAVING@  0.0150041us ;
    tran: time = 16.51 ns    (82.6 %), step = 30.75 ps     (154 m%)
SOAC: I4.MND.soac_m1       modn V(B,PSUB): ENTERING@ 0.0171288us duration:0.00212us ;
    tran: time = 17.51 ns    (87.5 %), step = 64.26 ps     (321 m%)
    tran: time = 18.52 ns    (92.6 %), step = 34.53 ps     (173 m%)
    tran: time = 19.51 ns    (97.5 %), step = 27.81 ps     (139 m%)
Number of accepted tran steps =             2734

Maximum value achieved for any signal of each quantity: 
V: V(I4.net1) = 3.735 V
I: I(V:p) = 712.1 uA

~~~~~~~~~~~~~~~~~~~~~~~~~~~~~~~~~
Post-Transient Simulation Summary
~~~~~~~~~~~~~~~~~~~~~~~~~~~~~~~~~
   -   To further speed up simulation, consider
          add ++aps on command line
   -   Non-default settings that could significantly slow down simulation
          errpreset = conservative, default moderate
          reltol = 10e-06, default 100e-06 (conservative)
~~~~~~~~~~~~~~~~~~~~~~~~~~~~~~~~~


During simulation, the CPU load for active processors is :
         0 (5.1 %)       1 (5.6 %)       2 (19.9 %)      3 (3.3 %)
         4 (22.4 %)      5 (19.0 %)      6 (7.4 %)       7 (2.3 %)
         8 (19.3 %)      9 (2.0 %)      10 (1.0 %)      11 (12.2 %)
        Total: 119.7%
Initial condition solution time: CPU = 543 us, elapsed = 545.025 us.
Intrinsic tran analysis time:    CPU = 261.823 ms, elapsed = 269.725 ms.
Total time required for tran analysis `tran': CPU = 263.909 ms, elapsed = 280.647 ms, util. = 94%.
Time accumulated: CPU = 2.97595 s, elapsed = 3.95867 s.
Peak resident memory used = 196 Mbytes.

finalTimeOP: writing operating point information to rawfile.

Opening the PSF file ../psf/mc1_separate/009/finalTimeOP.info ...
modelParameter: writing model parameter values to rawfile.

Opening the PSF file ../psf/mc1_separate/009/modelParameter.info ...
element: writing instance parameter values to rawfile.

Opening the PSF file ../psf/mc1_separate/009/element.info ...
outputParameter: writing output parameter values to rawfile.

Opening the PSF file ../psf/mc1_separate/009/outputParameter.info ...
designParamVals: writing netlist parameters to rawfile.

Opening the PSFASCII file ../psf/mc1_separate/009/designParamVals.info ...
primitives: writing primitives to rawfile.

Opening the PSFASCII file ../psf/mc1_separate/009/primitives.info.primitives ...
subckts: writing subcircuits to rawfile.

Opening the PSFASCII file ../psf/mc1_separate/009/subckts.info.subckts ...
    mc1: iteration = 9           (8.08 %), step = 1            (1.01 %)
10             9.09% 

************************************************
Transient Analysis `tran': time = (0 s -> 20 ns)
************************************************

Opening the PSF file ../psf/mc1_separate/010/tran.tran.tran ...

Notice from spectre during IC analysis, during transient analysis `tran', during Monte Carlo analysis `mc1'.
    GminDC = 1 pS is large enough to noticeably affect the DC solution.
        dV(I4.net2) = 101.841 mV
        Use the `gmin_check' option to eliminate or expand this report.
Warning from spectre during check, during IC analysis, during transient analysis `tran', during Monte Carlo analysis `mc1'.
    WARNING (CMI-2943): Parameter checks have been ignored because the valid value for parameter 'trise' could not be found in 'C0'.

DC simulation time: CPU = 368 us, elapsed = 368.834 us.
Important parameter values:
    start = 0 s
    outputstart = 0 s
    stop = 20 ns
    step = 20 ps
    maxstep = 200 ps
    ic = all
    useprevic = no
    skipdc = no
    reltol = 10e-06
    abstol(V) = 1 uV
    abstol(I) = 1 pA
    temp = 27 C
    tnom = 27 C
    tempeffects = all
    errpreset = conservative
    method = gear2only
    lteratio = 10
    relref = alllocal
    cmin = 0 F
    gmin = 1 pS
    rabsshort = 1 mOhm


Notice from spectre during transient analysis `tran', during Monte Carlo analysis `mc1'.
    Multithreading is disabled due to the size of the design being too small.


Output and IC/nodeset summary:
                 save   5       (current)
                 save   17      (voltage)

    tran: time = 509.1 ps    (2.55 %), step = 26.25 ps     (131 m%)
SOAC: I4.MND.soac_m1       modn V(B,PSUB): LEAVING@  0us ;
SOAC: I4.MND.soac_m1       modn V(B,PSUB): ENTERING@ 0.00117611us duration:0.00118us ;
    tran: time = 1.513 ns    (7.57 %), step = 18.07 ps    (90.3 m%)
    tran: time = 2.526 ns    (12.6 %), step = 27.43 ps     (137 m%)
    tran: time = 3.517 ns    (17.6 %), step = 25.42 ps     (127 m%)
SOAC: I4.MND.soac_m1       modn V(B,PSUB): LEAVING@  0.00310073us ;
    tran: time = 4.507 ns    (22.5 %), step = 48.63 ps     (243 m%)
SOAC: I4.MND.soac_m1       modn V(B,PSUB): ENTERING@ 0.0050251us duration:0.00192us ;
    tran: time = 5.502 ns    (27.5 %), step = 44.11 ps     (221 m%)
    tran: time = 6.508 ns    (32.5 %), step = 10.27 ps    (51.4 m%)
    tran: time = 7.523 ns    (37.6 %), step = 26 ps        (130 m%)
SOAC: I4.MND.soac_m1       modn V(B,PSUB): LEAVING@  0.00710072us ;
    tran: time = 8.508 ns    (42.5 %), step = 48.68 ps     (243 m%)
SOAC: I4.MND.soac_m1       modn V(B,PSUB): ENTERING@ 0.0090427us duration:0.00194us ;
    tran: time = 9.51 ns     (47.5 %), step = 33.26 ps     (166 m%)
    tran: time = 10.51 ns    (52.6 %), step = 24.01 ps     (120 m%)
    tran: time = 11.51 ns    (57.6 %), step = 15.88 ps    (79.4 m%)
    tran: time = 12.52 ns    (62.6 %), step = 61.72 ps     (309 m%)
SOAC: I4.MND.soac_m1       modn V(B,PSUB): LEAVING@  0.0120277us ;
SOAC: I4.MND.soac_m1       modn V(B,PSUB): ENTERING@ 0.0131118us duration:0.00108us ;
    tran: time = 13.54 ns    (67.7 %), step = 46.03 ps     (230 m%)
    tran: time = 14.52 ns    (72.6 %), step = 34.54 ps     (173 m%)
    tran: time = 15.51 ns    (77.5 %), step = 12.03 ps    (60.1 m%)
SOAC: I4.MND.soac_m1       modn V(B,PSUB): LEAVING@  0.0150041us ;
    tran: time = 16.51 ns    (82.6 %), step = 30.75 ps     (154 m%)
SOAC: I4.MND.soac_m1       modn V(B,PSUB): ENTERING@ 0.0171288us duration:0.00212us ;
    tran: time = 17.51 ns    (87.5 %), step = 64.26 ps     (321 m%)
    tran: time = 18.52 ns    (92.6 %), step = 34.53 ps     (173 m%)
    tran: time = 19.51 ns    (97.5 %), step = 27.81 ps     (139 m%)
Number of accepted tran steps =             2734

Maximum value achieved for any signal of each quantity: 
V: V(I4.net1) = 3.735 V
I: I(V:p) = 712.1 uA

~~~~~~~~~~~~~~~~~~~~~~~~~~~~~~~~~
Post-Transient Simulation Summary
~~~~~~~~~~~~~~~~~~~~~~~~~~~~~~~~~
   -   To further speed up simulation, consider
          add ++aps on command line
   -   Non-default settings that could significantly slow down simulation
          errpreset = conservative, default moderate
          reltol = 10e-06, default 100e-06 (conservative)
~~~~~~~~~~~~~~~~~~~~~~~~~~~~~~~~~


During simulation, the CPU load for active processors is :
         0 (6.1 %)       1 (5.2 %)       2 (18.9 %)      3 (3.1 %)
         4 (22.2 %)      5 (17.8 %)      6 (9.2 %)       7 (2.6 %)
         8 (17.8 %)      9 (2.1 %)      10 (6.1 %)      11 (12.0 %)
        Total: 123.2%
Initial condition solution time: CPU = 385 us, elapsed = 386 us.
Intrinsic tran analysis time:    CPU = 262.109 ms, elapsed = 268.804 ms.
Total time required for tran analysis `tran': CPU = 263.717 ms, elapsed = 278.221 ms, util. = 94.8%.
Time accumulated: CPU = 3.2536 s, elapsed = 4.28021 s.
Peak resident memory used = 196 Mbytes.

finalTimeOP: writing operating point information to rawfile.

Opening the PSF file ../psf/mc1_separate/010/finalTimeOP.info ...
modelParameter: writing model parameter values to rawfile.

Opening the PSF file ../psf/mc1_separate/010/modelParameter.info ...
element: writing instance parameter values to rawfile.

Opening the PSF file ../psf/mc1_separate/010/element.info ...
outputParameter: writing output parameter values to rawfile.

Opening the PSF file ../psf/mc1_separate/010/outputParameter.info ...
designParamVals: writing netlist parameters to rawfile.

Opening the PSFASCII file ../psf/mc1_separate/010/designParamVals.info ...
primitives: writing primitives to rawfile.

Opening the PSFASCII file ../psf/mc1_separate/010/primitives.info.primitives ...
subckts: writing subcircuits to rawfile.

Opening the PSFASCII file ../psf/mc1_separate/010/subckts.info.subckts ...
    mc1: iteration = 10          (9.09 %), step = 1            (1.01 %)
11            10.10% 

************************************************
Transient Analysis `tran': time = (0 s -> 20 ns)
************************************************

Opening the PSF file ../psf/mc1_separate/011/tran.tran.tran ...

Notice from spectre during IC analysis, during transient analysis `tran', during Monte Carlo analysis `mc1'.
    GminDC = 1 pS is large enough to noticeably affect the DC solution.
        dV(I4.net2) = 101.841 mV
        Use the `gmin_check' option to eliminate or expand this report.
Warning from spectre during check, during IC analysis, during transient analysis `tran', during Monte Carlo analysis `mc1'.
    WARNING (CMI-2943): Parameter checks have been ignored because the valid value for parameter 'trise' could not be found in 'C0'.

DC simulation time: CPU = 382 us, elapsed = 382.9 us.
Important parameter values:
    start = 0 s
    outputstart = 0 s
    stop = 20 ns
    step = 20 ps
    maxstep = 200 ps
    ic = all
    useprevic = no
    skipdc = no
    reltol = 10e-06
    abstol(V) = 1 uV
    abstol(I) = 1 pA
    temp = 27 C
    tnom = 27 C
    tempeffects = all
    errpreset = conservative
    method = gear2only
    lteratio = 10
    relref = alllocal
    cmin = 0 F
    gmin = 1 pS
    rabsshort = 1 mOhm


Notice from spectre during transient analysis `tran', during Monte Carlo analysis `mc1'.
    Multithreading is disabled due to the size of the design being too small.


Output and IC/nodeset summary:
                 save   5       (current)
                 save   17      (voltage)

    tran: time = 509.1 ps    (2.55 %), step = 26.25 ps     (131 m%)
SOAC: I4.MND.soac_m1       modn V(B,PSUB): LEAVING@  0us ;
SOAC: I4.MND.soac_m1       modn V(B,PSUB): ENTERING@ 0.00117611us duration:0.00118us ;
    tran: time = 1.513 ns    (7.57 %), step = 18.07 ps    (90.3 m%)
    tran: time = 2.526 ns    (12.6 %), step = 27.43 ps     (137 m%)
    tran: time = 3.517 ns    (17.6 %), step = 25.42 ps     (127 m%)
SOAC: I4.MND.soac_m1       modn V(B,PSUB): LEAVING@  0.00310073us ;
    tran: time = 4.507 ns    (22.5 %), step = 48.63 ps     (243 m%)
SOAC: I4.MND.soac_m1       modn V(B,PSUB): ENTERING@ 0.0050251us duration:0.00192us ;
    tran: time = 5.502 ns    (27.5 %), step = 44.11 ps     (221 m%)
    tran: time = 6.508 ns    (32.5 %), step = 10.27 ps    (51.4 m%)
    tran: time = 7.523 ns    (37.6 %), step = 26 ps        (130 m%)
SOAC: I4.MND.soac_m1       modn V(B,PSUB): LEAVING@  0.00710072us ;
    tran: time = 8.508 ns    (42.5 %), step = 48.68 ps     (243 m%)
SOAC: I4.MND.soac_m1       modn V(B,PSUB): ENTERING@ 0.0090427us duration:0.00194us ;
    tran: time = 9.51 ns     (47.5 %), step = 33.26 ps     (166 m%)
    tran: time = 10.51 ns    (52.6 %), step = 24.01 ps     (120 m%)
    tran: time = 11.51 ns    (57.6 %), step = 15.88 ps    (79.4 m%)
    tran: time = 12.52 ns    (62.6 %), step = 61.72 ps     (309 m%)
SOAC: I4.MND.soac_m1       modn V(B,PSUB): LEAVING@  0.0120277us ;
SOAC: I4.MND.soac_m1       modn V(B,PSUB): ENTERING@ 0.0131118us duration:0.00108us ;
    tran: time = 13.54 ns    (67.7 %), step = 46.03 ps     (230 m%)
    tran: time = 14.52 ns    (72.6 %), step = 34.54 ps     (173 m%)
    tran: time = 15.51 ns    (77.5 %), step = 12.03 ps    (60.1 m%)
SOAC: I4.MND.soac_m1       modn V(B,PSUB): LEAVING@  0.0150041us ;
    tran: time = 16.51 ns    (82.6 %), step = 30.75 ps     (154 m%)
SOAC: I4.MND.soac_m1       modn V(B,PSUB): ENTERING@ 0.0171288us duration:0.00212us ;
    tran: time = 17.51 ns    (87.5 %), step = 64.26 ps     (321 m%)
    tran: time = 18.52 ns    (92.6 %), step = 34.53 ps     (173 m%)
    tran: time = 19.51 ns    (97.5 %), step = 27.81 ps     (139 m%)
Number of accepted tran steps =             2734

Maximum value achieved for any signal of each quantity: 
V: V(I4.net1) = 3.735 V
I: I(V:p) = 712.1 uA

~~~~~~~~~~~~~~~~~~~~~~~~~~~~~~~~~
Post-Transient Simulation Summary
~~~~~~~~~~~~~~~~~~~~~~~~~~~~~~~~~
   -   To further speed up simulation, consider
          add ++aps on command line
   -   Non-default settings that could significantly slow down simulation
          errpreset = conservative, default moderate
          reltol = 10e-06, default 100e-06 (conservative)
~~~~~~~~~~~~~~~~~~~~~~~~~~~~~~~~~


[...]
element: writing instance parameter values to rawfile.

Opening the PSF file ../psf/mc1_separate/061/element.info ...
outputParameter: writing output parameter values to rawfile.

Opening the PSF file ../psf/mc1_separate/061/outputParameter.info ...
designParamVals: writing netlist parameters to rawfile.

Opening the PSFASCII file ../psf/mc1_separate/061/designParamVals.info ...
primitives: writing primitives to rawfile.

Opening the PSFASCII file ../psf/mc1_separate/061/primitives.info.primitives ...
subckts: writing subcircuits to rawfile.

Opening the PSFASCII file ../psf/mc1_separate/061/subckts.info.subckts ...
    mc1: iteration = 61          (60.6 %), step = 1            (1.01 %)
62            61.62% 

************************************************
Transient Analysis `tran': time = (0 s -> 20 ns)
************************************************

Opening the PSF file ../psf/mc1_separate/062/tran.tran.tran ...

Notice from spectre during IC analysis, during transient analysis `tran', during Monte Carlo analysis `mc1'.
    GminDC = 1 pS is large enough to noticeably affect the DC solution.
        dV(I4.net2) = 101.841 mV
        Use the `gmin_check' option to eliminate or expand this report.
Warning from spectre during check, during IC analysis, during transient analysis `tran', during Monte Carlo analysis `mc1'.
    WARNING (CMI-2943): Parameter checks have been ignored because the valid value for parameter 'trise' could not be found in 'C0'.

DC simulation time: CPU = 600 us, elapsed = 601.053 us.
Important parameter values:
    start = 0 s
    outputstart = 0 s
    stop = 20 ns
    step = 20 ps
    maxstep = 200 ps
    ic = all
    useprevic = no
    skipdc = no
    reltol = 10e-06
    abstol(V) = 1 uV
    abstol(I) = 1 pA
    temp = 27 C
    tnom = 27 C
    tempeffects = all
    errpreset = conservative
    method = gear2only
    lteratio = 10
    relref = alllocal
    cmin = 0 F
    gmin = 1 pS
    rabsshort = 1 mOhm


Notice from spectre during transient analysis `tran', during Monte Carlo analysis `mc1'.
    Multithreading is disabled due to the size of the design being too small.


Output and IC/nodeset summary:
                 save   5       (current)
                 save   17      (voltage)

    tran: time = 509.1 ps    (2.55 %), step = 26.25 ps     (131 m%)
SOAC: I4.MND.soac_m1       modn V(B,PSUB): LEAVING@  0us ;
SOAC: I4.MND.soac_m1       modn V(B,PSUB): ENTERING@ 0.00117611us duration:0.00118us ;
    tran: time = 1.513 ns    (7.57 %), step = 18.07 ps    (90.3 m%)
    tran: time = 2.526 ns    (12.6 %), step = 27.43 ps     (137 m%)
    tran: time = 3.517 ns    (17.6 %), step = 25.42 ps     (127 m%)
SOAC: I4.MND.soac_m1       modn V(B,PSUB): LEAVING@  0.00310073us ;
    tran: time = 4.507 ns    (22.5 %), step = 48.63 ps     (243 m%)
SOAC: I4.MND.soac_m1       modn V(B,PSUB): ENTERING@ 0.0050251us duration:0.00192us ;
    tran: time = 5.502 ns    (27.5 %), step = 44.11 ps     (221 m%)
    tran: time = 6.508 ns    (32.5 %), step = 10.27 ps    (51.4 m%)
    tran: time = 7.523 ns    (37.6 %), step = 26 ps        (130 m%)
SOAC: I4.MND.soac_m1       modn V(B,PSUB): LEAVING@  0.00710072us ;
    tran: time = 8.508 ns    (42.5 %), step = 48.68 ps     (243 m%)
SOAC: I4.MND.soac_m1       modn V(B,PSUB): ENTERING@ 0.0090427us duration:0.00194us ;
    tran: time = 9.51 ns     (47.5 %), step = 33.26 ps     (166 m%)
    tran: time = 10.51 ns    (52.6 %), step = 24.01 ps     (120 m%)
    tran: time = 11.51 ns    (57.6 %), step = 15.88 ps    (79.4 m%)
    tran: time = 12.52 ns    (62.6 %), step = 61.72 ps     (309 m%)
SOAC: I4.MND.soac_m1       modn V(B,PSUB): LEAVING@  0.0120277us ;
SOAC: I4.MND.soac_m1       modn V(B,PSUB): ENTERING@ 0.0131118us duration:0.00108us ;
    tran: time = 13.54 ns    (67.7 %), step = 46.03 ps     (230 m%)
    tran: time = 14.52 ns    (72.6 %), step = 34.54 ps     (173 m%)
    tran: time = 15.51 ns    (77.5 %), step = 12.03 ps    (60.1 m%)
SOAC: I4.MND.soac_m1       modn V(B,PSUB): LEAVING@  0.0150041us ;
    tran: time = 16.51 ns    (82.6 %), step = 30.75 ps     (154 m%)
SOAC: I4.MND.soac_m1       modn V(B,PSUB): ENTERING@ 0.0171288us duration:0.00212us ;
    tran: time = 17.51 ns    (87.5 %), step = 64.26 ps     (321 m%)
    tran: time = 18.52 ns    (92.6 %), step = 34.53 ps     (173 m%)
    tran: time = 19.51 ns    (97.5 %), step = 27.81 ps     (139 m%)
Number of accepted tran steps =             2734

Maximum value achieved for any signal of each quantity: 
V: V(I4.net1) = 3.735 V
I: I(V:p) = 712.1 uA

~~~~~~~~~~~~~~~~~~~~~~~~~~~~~~~~~
Post-Transient Simulation Summary
~~~~~~~~~~~~~~~~~~~~~~~~~~~~~~~~~
   -   To further speed up simulation, consider
          add ++aps on command line
   -   Non-default settings that could significantly slow down simulation
          errpreset = conservative, default moderate
          reltol = 10e-06, default 100e-06 (conservative)
~~~~~~~~~~~~~~~~~~~~~~~~~~~~~~~~~


During simulation, the CPU load for active processors is :
         0 (12.0 %)      1 (17.0 %)      2 (29.5 %)      3 (21.5 %)
         4 (29.9 %)      5 (17.6 %)      6 (6.6 %)       7 (9.7 %)
         8 (5.7 %)       9 (8.2 %)      10 (7.6 %)      11 (15.2 %)
        Total: 180.5%
Initial condition solution time: CPU = 625 us, elapsed = 626.087 us.
Intrinsic tran analysis time:    CPU = 283.575 ms, elapsed = 302.073 ms.
Total time required for tran analysis `tran': CPU = 286.081 ms, elapsed = 310.929 ms, util. = 92%.
Time accumulated: CPU = 18.0505 s, elapsed = 21.2436 s.
Peak resident memory used = 197 Mbytes.

finalTimeOP: writing operating point information to rawfile.

Opening the PSF file ../psf/mc1_separate/062/finalTimeOP.info ...
modelParameter: writing model parameter values to rawfile.

Opening the PSF file ../psf/mc1_separate/062/modelParameter.info ...
element: writing instance parameter values to rawfile.

Opening the PSF file ../psf/mc1_separate/062/element.info ...
outputParameter: writing output parameter values to rawfile.

Opening the PSF file ../psf/mc1_separate/062/outputParameter.info ...
designParamVals: writing netlist parameters to rawfile.

Opening the PSFASCII file ../psf/mc1_separate/062/designParamVals.info ...
primitives: writing primitives to rawfile.

Opening the PSFASCII file ../psf/mc1_separate/062/primitives.info.primitives ...
subckts: writing subcircuits to rawfile.

Opening the PSFASCII file ../psf/mc1_separate/062/subckts.info.subckts ...
    mc1: iteration = 62          (61.6 %), step = 1            (1.01 %)
63            62.63% 

************************************************
Transient Analysis `tran': time = (0 s -> 20 ns)
************************************************

Opening the PSF file ../psf/mc1_separate/063/tran.tran.tran ...

Notice from spectre during IC analysis, during transient analysis `tran', during Monte Carlo analysis `mc1'.
    GminDC = 1 pS is large enough to noticeably affect the DC solution.
        dV(I4.net2) = 101.841 mV
        Use the `gmin_check' option to eliminate or expand this report.
Warning from spectre during check, during IC analysis, during transient analysis `tran', during Monte Carlo analysis `mc1'.
    WARNING (CMI-2943): Parameter checks have been ignored because the valid value for parameter 'trise' could not be found in 'C0'.

DC simulation time: CPU = 377 us, elapsed = 376.94 us.
Important parameter values:
    start = 0 s
    outputstart = 0 s
    stop = 20 ns
    step = 20 ps
    maxstep = 200 ps
    ic = all
    useprevic = no
    skipdc = no
    reltol = 10e-06
    abstol(V) = 1 uV
    abstol(I) = 1 pA
    temp = 27 C
    tnom = 27 C
    tempeffects = all
    errpreset = conservative
    method = gear2only
    lteratio = 10
    relref = alllocal
    cmin = 0 F
    gmin = 1 pS
    rabsshort = 1 mOhm


Notice from spectre during transient analysis `tran', during Monte Carlo analysis `mc1'.
    Multithreading is disabled due to the size of the design being too small.


Output and IC/nodeset summary:
                 save   5       (current)
                 save   17      (voltage)

    tran: time = 509.1 ps    (2.55 %), step = 26.25 ps     (131 m%)
SOAC: I4.MND.soac_m1       modn V(B,PSUB): LEAVING@  0us ;
SOAC: I4.MND.soac_m1       modn V(B,PSUB): ENTERING@ 0.00117611us duration:0.00118us ;
    tran: time = 1.513 ns    (7.57 %), step = 18.07 ps    (90.3 m%)
    tran: time = 2.526 ns    (12.6 %), step = 27.43 ps     (137 m%)
    tran: time = 3.517 ns    (17.6 %), step = 25.42 ps     (127 m%)
SOAC: I4.MND.soac_m1       modn V(B,PSUB): LEAVING@  0.00310073us ;
    tran: time = 4.507 ns    (22.5 %), step = 48.63 ps     (243 m%)
SOAC: I4.MND.soac_m1       modn V(B,PSUB): ENTERING@ 0.0050251us duration:0.00192us ;
    tran: time = 5.502 ns    (27.5 %), step = 44.11 ps     (221 m%)
    tran: time = 6.508 ns    (32.5 %), step = 10.27 ps    (51.4 m%)
    tran: time = 7.523 ns    (37.6 %), step = 26 ps        (130 m%)
SOAC: I4.MND.soac_m1       modn V(B,PSUB): LEAVING@  0.00710072us ;
    tran: time = 8.508 ns    (42.5 %), step = 48.68 ps     (243 m%)
SOAC: I4.MND.soac_m1       modn V(B,PSUB): ENTERING@ 0.0090427us duration:0.00194us ;
    tran: time = 9.51 ns     (47.5 %), step = 33.26 ps     (166 m%)
    tran: time = 10.51 ns    (52.6 %), step = 24.01 ps     (120 m%)
    tran: time = 11.51 ns    (57.6 %), step = 15.88 ps    (79.4 m%)
    tran: time = 12.52 ns    (62.6 %), step = 61.72 ps     (309 m%)
SOAC: I4.MND.soac_m1       modn V(B,PSUB): LEAVING@  0.0120277us ;
SOAC: I4.MND.soac_m1       modn V(B,PSUB): ENTERING@ 0.0131118us duration:0.00108us ;
    tran: time = 13.54 ns    (67.7 %), step = 46.03 ps     (230 m%)
    tran: time = 14.52 ns    (72.6 %), step = 34.54 ps     (173 m%)
    tran: time = 15.51 ns    (77.5 %), step = 12.03 ps    (60.1 m%)
SOAC: I4.MND.soac_m1       modn V(B,PSUB): LEAVING@  0.0150041us ;
    tran: time = 16.51 ns    (82.6 %), step = 30.75 ps     (154 m%)
SOAC: I4.MND.soac_m1       modn V(B,PSUB): ENTERING@ 0.0171288us duration:0.00212us ;
    tran: time = 17.51 ns    (87.5 %), step = 64.26 ps     (321 m%)
    tran: time = 18.52 ns    (92.6 %), step = 34.53 ps     (173 m%)
    tran: time = 19.51 ns    (97.5 %), step = 27.81 ps     (139 m%)
Number of accepted tran steps =             2734

Maximum value achieved for any signal of each quantity: 
V: V(I4.net1) = 3.735 V
I: I(V:p) = 712.1 uA

~~~~~~~~~~~~~~~~~~~~~~~~~~~~~~~~~
Post-Transient Simulation Summary
~~~~~~~~~~~~~~~~~~~~~~~~~~~~~~~~~
   -   To further speed up simulation, consider
          add ++aps on command line
   -   Non-default settings that could significantly slow down simulation
          errpreset = conservative, default moderate
          reltol = 10e-06, default 100e-06 (conservative)
~~~~~~~~~~~~~~~~~~~~~~~~~~~~~~~~~


During simulation, the CPU load for active processors is :
         0 (11.9 %)      1 (18.0 %)      2 (29.1 %)      3 (21.4 %)
         4 (30.0 %)      5 (17.5 %)      6 (6.6 %)       7 (9.6 %)
         8 (5.9 %)       9 (9.0 %)      10 (8.5 %)      11 (15.2 %)
        Total: 182.5%
Initial condition solution time: CPU = 396 us, elapsed = 397.205 us.
Intrinsic tran analysis time:    CPU = 282.793 ms, elapsed = 289.29 ms.
Total time required for tran analysis `tran': CPU = 284.547 ms, elapsed = 298.148 ms, util. = 95.4%.
Time accumulated: CPU = 18.3538 s, elapsed = 21.5853 s.
Peak resident memory used = 197 Mbytes.

finalTimeOP: writing operating point information to rawfile.

Opening the PSF file ../psf/mc1_separate/063/finalTimeOP.info ...
modelParameter: writing model parameter values to rawfile.

Opening the PSF file ../psf/mc1_separate/063/modelParameter.info ...
element: writing instance parameter values to rawfile.

Opening the PSF file ../psf/mc1_separate/063/element.info ...
outputParameter: writing output parameter values to rawfile.

Opening the PSF file ../psf/mc1_separate/063/outputParameter.info ...
designParamVals: writing netlist parameters to rawfile.

Opening the PSFASCII file ../psf/mc1_separate/063/designParamVals.info ...
primitives: writing primitives to rawfile.

Opening the PSFASCII file ../psf/mc1_separate/063/primitives.info.primitives ...
subckts: writing subcircuits to rawfile.

Opening the PSFASCII file ../psf/mc1_separate/063/subckts.info.subckts ...
    mc1: iteration = 63          (62.6 %), step = 1            (1.01 %)
64            63.64% 

************************************************
Transient Analysis `tran': time = (0 s -> 20 ns)
************************************************

Opening the PSF file ../psf/mc1_separate/064/tran.tran.tran ...

Notice from spectre during IC analysis, during transient analysis `tran', during Monte Carlo analysis `mc1'.
    GminDC = 1 pS is large enough to noticeably affect the DC solution.
        dV(I4.net2) = 101.841 mV
        Use the `gmin_check' option to eliminate or expand this report.
Warning from spectre during check, during IC analysis, during transient analysis `tran', during Monte Carlo analysis `mc1'.
    WARNING (CMI-2943): Parameter checks have been ignored because the valid value for parameter 'trise' could not be found in 'C0'.

DC simulation time: CPU = 403 us, elapsed = 402.927 us.
Important parameter values:
    start = 0 s
    outputstart = 0 s
    stop = 20 ns
    step = 20 ps
    maxstep = 200 ps
    ic = all
    useprevic = no
    skipdc = no
    reltol = 10e-06
    abstol(V) = 1 uV
    abstol(I) = 1 pA
    temp = 27 C
    tnom = 27 C
    tempeffects = all
    errpreset = conservative
    method = gear2only
    lteratio = 10
    relref = alllocal
    cmin = 0 F
    gmin = 1 pS
    rabsshort = 1 mOhm


Notice from spectre during transient analysis `tran', during Monte Carlo analysis `mc1'.
    Multithreading is disabled due to the size of the design being too small.


Output and IC/nodeset summary:
                 save   5       (current)
                 save   17      (voltage)

    tran: time = 509.1 ps    (2.55 %), step = 26.25 ps     (131 m%)
SOAC: I4.MND.soac_m1       modn V(B,PSUB): LEAVING@  0us ;
SOAC: I4.MND.soac_m1       modn V(B,PSUB): ENTERING@ 0.00117611us duration:0.00118us ;
    tran: time = 1.513 ns    (7.57 %), step = 18.07 ps    (90.3 m%)
    tran: time = 2.526 ns    (12.6 %), step = 27.43 ps     (137 m%)
    tran: time = 3.517 ns    (17.6 %), step = 25.42 ps     (127 m%)
SOAC: I4.MND.soac_m1       modn V(B,PSUB): LEAVING@  0.00310073us ;
    tran: time = 4.507 ns    (22.5 %), step = 48.63 ps     (243 m%)
SOAC: I4.MND.soac_m1       modn V(B,PSUB): ENTERING@ 0.0050251us duration:0.00192us ;
    tran: time = 5.502 ns    (27.5 %), step = 44.11 ps     (221 m%)
    tran: time = 6.508 ns    (32.5 %), step = 10.27 ps    (51.4 m%)
    tran: time = 7.523 ns    (37.6 %), step = 26 ps        (130 m%)
SOAC: I4.MND.soac_m1       modn V(B,PSUB): LEAVING@  0.00710072us ;
    tran: time = 8.508 ns    (42.5 %), step = 48.68 ps     (243 m%)
SOAC: I4.MND.soac_m1       modn V(B,PSUB): ENTERING@ 0.0090427us duration:0.00194us ;
    tran: time = 9.51 ns     (47.5 %), step = 33.26 ps     (166 m%)
    tran: time = 10.51 ns    (52.6 %), step = 24.01 ps     (120 m%)
    tran: time = 11.51 ns    (57.6 %), step = 15.88 ps    (79.4 m%)
    tran: time = 12.52 ns    (62.6 %), step = 61.72 ps     (309 m%)
SOAC: I4.MND.soac_m1       modn V(B,PSUB): LEAVING@  0.0120277us ;
SOAC: I4.MND.soac_m1       modn V(B,PSUB): ENTERING@ 0.0131118us duration:0.00108us ;
    tran: time = 13.54 ns    (67.7 %), step = 46.03 ps     (230 m%)
    tran: time = 14.52 ns    (72.6 %), step = 34.54 ps     (173 m%)
    tran: time = 15.51 ns    (77.5 %), step = 12.03 ps    (60.1 m%)
SOAC: I4.MND.soac_m1       modn V(B,PSUB): LEAVING@  0.0150041us ;
    tran: time = 16.51 ns    (82.6 %), step = 30.75 ps     (154 m%)
SOAC: I4.MND.soac_m1       modn V(B,PSUB): ENTERING@ 0.0171288us duration:0.00212us ;
    tran: time = 17.51 ns    (87.5 %), step = 64.26 ps     (321 m%)

~~~~~~~~~~~~~~~~~~~~~~~~~~~~~~~~~
Post-Transient Simulation Summary
~~~~~~~~~~~~~~~~~~~~~~~~~~~~~~~~~
   -   To further speed up simulation, consider
          add ++aps on command line
   -   Non-default settings that could significantly slow down simulation
          errpreset = conservative, default moderate
          reltol = 10e-06, default 100e-06 (conservative)
~~~~~~~~~~~~~~~~~~~~~~~~~~~~~~~~~


During simulation, the CPU load for active processors is :
         0 (12.0 %)      1 (17.8 %)      2 (28.8 %)      3 (21.1 %)
         4 (30.0 %)      5 (17.4 %)      6 (6.5 %)       7 (10.6 %)
         8 (7.0 %)       9 (9.3 %)      10 (8.6 %)      11 (15.0 %)
        Total: 184.1%

Spectre received SIGHUP sent from PID: 258686 with UID: 524544.
Process hierarchy of PID 258686 :
    PID        COMMAND
    258686     /eda/cadence/2022-23/RHELx86/IC_6.1.8.320/tools/bin/64bit/cdsServIpc -c 36661 -n 6 -r 0 -x cd /home/oj23092/VLSI_Design_Lab/Sim/lab2024/tb_ycircuitcustom/adexl/results/data/MonteCarlo.5/1/lab2024:tb_ycircuitcustom:1/groupRunDataDir/netlist ; ./runSimulation 
    254696     /eda/cadence/2022-23/RHELx86/IC_6.1.8.320/tools.lnx86/dfII/bin/64bit/virtuoso -noautostart -mpssession virtuoso225598 -mpshost it075891.wks.bris.ac.uk -davinciService DaVinciService_225598_1713642962 -log /home/oj23092/VLSI_Design_Lab/logs_oj23092/logs0/Job3.log1 -licenseLockFileName /home/oj23092/VLSI_Design_Lab/.tmp_oj23092/.it075891.wks.bris.ac.uk_225598 -interactiveA -interactiveE -interactiveRTT -nostdin -nographE -axlChildIdFlag 3 
    254592     /bin/sh /eda/cadence/2022-23/RHELx86/IC_6.1.8.320/share/bin/cdsXvfb-run -a -s -screen 0 1024x868x24 /eda/cadence/2022-23/RHELx86/IC_6.1.8.320/tools.lnx86/dfII/bin/64bit/virtuoso -noautostart -mpssession virtuoso225598 -mpshost it075891.wks.bris.ac.uk -davinciService DaVinciService_225598_1713642962 -log /home/oj23092/VLSI_Design_Lab/logs_oj23092/logs0/Job3.log1 -licenseLockFileName /home/oj23092/VLSI_Design_Lab/.tmp_oj23092/.it075891.wks.bris.ac.uk_225598 -interactiveA -interactiveE -interactiveRTT -nostdin -nographE -axlChildIdFlag 3 
    254591     /bin/sh /home/oj23092/VLSI_Design_Lab/.tmp_oj23092/.cmddir0/runICRP3 
    254590     /eda/cadence/2022-23/RHELx86/IC_6.1.8.320/tools/bin/64bit/cdsServIpc -c 45255 -n 17 -r 10 -x /home/oj23092/VLSI_Design_Lab/.tmp_oj23092/.cmddir0/runICRP3 
    225598     /eda/cadence/2022-23/RHELx86/IC_6.1.8.320/tools/dfII/bin/64bit/virtuoso 
    225570     /bin/csh -f /eda/cadence/ams/4.10/cds/bin/ams_cds 
    225162     /bin/bash 
    225153     /usr/bin/konsole 
    223159     /usr/bin/plasmashell 
    223042     /usr/bin/plasma_session 
    222729     startkde 
    222727     /usr/bin/dbus-run-session /etc/x2go/Xsession 
    222619     /bin/bash /usr/bin/x2goruncommand 128 221686 oj23092-128-1713642572_stDKDE_dp32 43393 startkde nosnd D 
About to end simulation, please wait for a moment...

Warning from spectre at time = 18.2008 ns during transient analysis `tran', during Monte Carlo analysis `mc1'.
    WARNING (SPECTRE-16002): Monte Carlo iteration 64 terminated prematurely because of the following error(s):
Error found by spectre at time = 18.2008 ns during transient analysis `tran', during Monte Carlo analysis `mc1'.
    ERROR (SPECTRE-25): The simulation is stopped either by the user or the farm.

Licensing Information:
Lic Summary:
[22:36:39.106793] Cdslmd servers:5280@ls-dc2-fen-p1.services.bris.ac.uk:5280@ls-dc2-fen-p0.services.bris.ac.uk
[22:36:39.106816] Feature usage summary:
[22:36:39.106817] Virtuoso_Multi_mode_Simulation


Message from ADE: Simulation stopped because you selected the 'Stop Simulation' command in ADE.nalysis `mc1'.

Aggregate audit (10:36:39 PM, Sat Apr 20, 2024):
Time used: CPU = 18.6 s, elapsed = 21.9 s, util. = 85%.
Time spent in licensing: elapsed = 361 ms.
Peak memory used = 199 Mbytes.
Simulation started at: 10:36:17 PM, Sat Apr 20, 2024, ended at: 10:36:39 PM, Sat Apr 20, 2024, with elapsed time (wall clock): 21.9 s.
spectre completes with 1 error, 82 warnings, and 138 notices.
spectre terminated prematurely due to fatal error.
