
Spectre (R) Circuit Simulator
Version 21.1.0.751.isr19 64bit -- 22 May 2023
Copyright (C) 1989-2023 Cadence Design Systems, Inc. All rights reserved worldwide. Cadence and Spectre are registered trademarks of Cadence Design Systems, Inc. All others are the property of their respective holders.

Includes RSA BSAFE(R) Cryptographic or Security Protocol Software from RSA Security, Inc.

User: oj23092   Host: it075891.wks.bris.ac.uk   HostID: DE89A69F   PID: 250458
Memory  available: 12.3723 GB  physical: 16.2980 GB
Linux   : Rocky Linux release 8.9 (Green Obsidian)
CPU Type: Intel(R) Core(TM) i7-8700 CPU @ 3.20GHz
        Socket: Processors [Frequency] (Hyperthreaded Processor)
        0:       0 [3200.0] (  6 ),  1 [3200.0] (  7 ),  2 [3200.0] (  8 )
                 3 [3200.0] (  9 ),  4 [4299.6] ( 10 ),  5 [3200.0] ( 11 )
        
System load averages (1min, 5min, 15min) : 2.3 %, 0.9 %, 0.4 %
Hyperthreading is enabled
HPC is enabled


Simulating `input.scs' on it075891.wks.bris.ac.uk at 10:18:14 PM, Sat Apr 20, 2024 (process id: 250458).
Current working directory: /home/oj23092/VLSI_Design_Lab/Sim/lab2024/tb_ycircuit/adexl/results/data/MonteCarlo.2/1/lab2024:tb_ycircuit:1/groupRunDataDir/netlist
Command line:
     \
        /eda/cadence/2022-23/RHELx86/SPECTRE_21.10.751/tools.lnx86/bin/spectre  \
        -64 input.scs +escchars +log ../psf/spectre.out -format psfbin  \
        +rtsf -raw ../psf +aps +mt +lqtimeout 900 -maxw 5 -maxn 5  \
        +param /eda/cadence/ams/4.10/spectre/ams_range.lmts -env ade  \
        -ahdllibdir  \
        /home/oj23092/VLSI_Design_Lab/Sim/lab2024/tb_ycircuit/adexl/results/data/MonteCarlo.2/sharedData/Job2/ahdl/input.ahdlSimDB  \
        +logstatus

Licensing Information:
[22:18:14.289682] Configured Lic search path (21.01-s002): 5280@ls-dc2-fen-p1.services.bris.ac.uk:5280@ls-dc2-fen-p0.services.bris.ac.uk

Licensing Information:
[22:18:14.214003] Periodic Lic check successful

Loading /eda/cadence/2022-23/RHELx86/SPECTRE_21.10.751/tools.lnx86/cmi/lib/64bit/5.0/libinfineon_sh.so ...
Loading /eda/cadence/2022-23/RHELx86/SPECTRE_21.10.751/tools.lnx86/cmi/lib/64bit/5.0/libphilips_o_sh.so ...
Loading /eda/cadence/2022-23/RHELx86/SPECTRE_21.10.751/tools.lnx86/cmi/lib/64bit/5.0/libphilips_sh.so ...
Loading /eda/cadence/2022-23/RHELx86/SPECTRE_21.10.751/tools.lnx86/cmi/lib/64bit/5.0/libsparam_sh.so ...
Loading /eda/cadence/2022-23/RHELx86/SPECTRE_21.10.751/tools.lnx86/cmi/lib/64bit/5.0/libstmodels_sh.so ...
Reading file:  /home/oj23092/VLSI_Design_Lab/Sim/lab2024/tb_ycircuit/adexl/results/data/MonteCarlo.2/1/lab2024:tb_ycircuit:1/groupRunDataDir/netlist/input.scs
Reading file:  /eda/cadence/ams/4.10/spectre/ams_range.lmts

Warning from spectre during read of parameter soft limits file `/eda/cadence/ams/4.10/spectre/ams_range.lmts', during circuit read-in.
    WARNING (SPECTRE-8360): line 1511: `ac' is an undefined primitive device.
    WARNING (SPECTRE-8360): line 1512: `ac' is an undefined primitive device.
    WARNING (SPECTRE-8360): line 1513: `ac' is an undefined primitive device.
    WARNING (SPECTRE-8360): line 1514: `ac' is an undefined primitive device.
    WARNING (SPECTRE-8360): line 1515: `ac' is an undefined primitive device.
        Further occurrences of this warning will be suppressed.

Reading file:  /eda/cadence/2022-23/RHELx86/SPECTRE_21.10.751/tools.lnx86/spectre/etc/configs/spectre.cfg
Reading file:  /eda/cadence/ams/4.10/spectre/c35/soac/soac.scs
Reading file:  /eda/cadence/ams/4.10/spectre/c35/soac/processOption.scs
Reading file:  /eda/cadence/ams/4.10/spectre/c35/soac/process.scs
Reading file:  /eda/cadence/ams/4.10/spectre/c35/soac/soac.va

Warning from spectre during AHDL read-in.
    WARNING (VACOMP-2435): The environment variable CDS_AHDLCMI_ENABLE is no longer supported. Therefore, the simulator will use the default compiled C code flow.

Reading link:  /eda/cadence/2022-23/RHELx86/SPECTRE_21.10.751/tools.lnx86/spectre/etc/ahdl/constants.h
Reading file:  /eda/cadence/2022-23/RHELx86/SPECTRE_21.10.751/tools.lnx86/spectre/etc/ahdl/constants.vams
Reading link:  /eda/cadence/2022-23/RHELx86/SPECTRE_21.10.751/tools.lnx86/spectre/etc/ahdl/discipline.h
Reading file:  /eda/cadence/2022-23/RHELx86/SPECTRE_21.10.751/tools.lnx86/spectre/etc/ahdl/disciplines.vams
Reading file:  /eda/cadence/ams/4.10/spectre/c35/processOption/C35B4C3.scs
Reading file:  /eda/cadence/ams/4.10/spectre/c35/soac/cmos53.scs
Reading file:  /eda/cadence/ams/4.10/spectre/c35/soac/res.scs
Reading file:  /eda/cadence/ams/4.10/spectre/c35/soac/cap.scs
Reading file:  /eda/cadence/ams/4.10/spectre/c35/soac/bip.scs
Reading file:  /eda/cadence/ams/4.10/spectre/c35/soac/ind.scs
Reading file:  /eda/cadence/ams/4.10/spectre/c35/soac/esddiode.scs
Time for NDB Parsing: CPU = 72.008 ms, elapsed = 281.211 ms.
Time accumulated: CPU = 127.924 ms, elapsed = 281.213 ms.
Peak resident memory used = 164 Mbytes.

TCP: opening server port it075891.wks.bris.ac.uk:47093
Existing shared object for module modp_ahdl is up to date.
Installed compiled interface for modp_ahdl.
Existing shared object for module modn_ahdl is up to date.
Installed compiled interface for modn_ahdl.
Time for Elaboration: CPU = 19.967 ms, elapsed = 21.349 ms.
Time accumulated: CPU = 147.952 ms, elapsed = 302.622 ms.
Peak resident memory used = 174 Mbytes.


Notice from spectre during hierarchy flattening.
    The value 'psf' specified for the 'checklimitdest' option will no longer be supported in future releases. Use 'spectre -h' to see other recommended values for the 'checklimitdest' option.


Time for EDB Visiting: CPU = 1.337 ms, elapsed = 1.77002 ms.
Time accumulated: CPU = 149.351 ms, elapsed = 304.453 ms.
Peak resident memory used = 176 Mbytes.

Loading /eda/cadence/2022-23/RHELx86/SPECTRE_21.10.751/tools.lnx86/mdl/lib/64bit/libSpectreEH_sh.so ...

Warning from spectre during initial setup.
    WARNING (SPECTRE-16460): SOAC_cvarm_vspsub:Specified subcircuit master `cvarm' was not found.
    WARNING (SPECTRE-16462): SOAC_cvarm_vspsub:Error in specification of subcircuit master. Assert is ignored.
    WARNING (SPECTRE-16460): SOAC_cvarm_vbs:Specified subcircuit master `cvarm' was not found.
    WARNING (SPECTRE-16462): SOAC_cvarm_vbs:Error in specification of subcircuit master. Assert is ignored.
    WARNING (SPECTRE-16460): SOAC_cvarm_vgb:Specified subcircuit master `cvarm' was not found.
    WARNING (SPECTRE-16462): SOAC_cvarm_vgb:Error in specification of subcircuit master. Assert is ignored.
    WARNING (SPECTRE-16460): SOAC_cvart_vspsub:Specified subcircuit master `cvart' was not found.
    WARNING (SPECTRE-16462): SOAC_cvart_vspsub:Error in specification of subcircuit master. Assert is ignored.
    WARNING (SPECTRE-16460): SOAC_cvart_vbs:Specified subcircuit master `cvart' was not found.
        Further occurrences of this warning will be suppressed.
    WARNING (SPECTRE-16462): SOAC_cvart_vbs:Error in specification of subcircuit master. Assert is ignored.
        Further occurrences of this warning will be suppressed.
Notice from spectre during initial setup.
    Ignorevaref=yes is ignored since all nodes are connected to Verilog-A modules.
Notice from spectre during topology check.
    Only one connection to the following 8 nodes:
        I0.MPD.psub!
        I0.MPC.psub!
        I0.MPB.psub!
        I0.MPA.psub!
        I0.MNC.psub!
        Further occurrences of this notice will be suppressed.
Notice from spectre during initial setup.
    Multithreading is disabled due to the size of the design being too small.


Global user options:
         psfversion = 1.4.0
            vabstol = 1e-06
            iabstol = 1e-12
               temp = 27
           homotopy = 5
              limit = delta
         compatible = spice2
               gmin = 1e-12
             rforce = 1
           maxnotes = 5
           maxwarns = 5
             digits = 5
               cols = 80
             pivrel = 0.001
           sensfile = ../psf/sens.output
     checklimitdest = psf
     enable_pre_ver = yes
      ignorezerovar = yes
               save = allpub
             reltol = 0.0001
               tnom = 27
             scalem = 1
              scale = 1

Scoped user options:

Circuit inventory:
              nodes 17
            bsim3v3 8     
          capacitor 1     
          modn_ahdl 4     
          modp_ahdl 4     
            vsource 5     

Analysis and control statement inventory:
               info 7     
         montecarlo 1     
               tran 1     

Output statements:
             .probe 0     
           .measure 0     
               save 0     

Design checks inventory:
          paramtest 8     
             assert 175   


Notice from spectre during initial setup.
    APS enabled.
    1 notice suppressed.
    72 warnings suppressed.

Time for parsing: CPU = 5.68 ms, elapsed = 253.971 ms.
Time accumulated: CPU = 155.086 ms, elapsed = 558.478 ms.
Peak resident memory used = 181 Mbytes.

~~~~~~~~~~~~~~~~~~~~~~
Pre-Simulation Summary
~~~~~~~~~~~~~~~~~~~~~~
   -   (APS) Multi-threading. The recommended number of threads is 1, consider adding +mt=1 on command line.
~~~~~~~~~~~~~~~~~~~~~~

**************************************************
Monte Carlo Analysis `mc1': iteration = (1 -> 200)
**************************************************
Important parameter values:
    seed = 12345
    sampling = standard
    variations = all
    firstrun = 1
    numruns = 200
    nullmfactorcorrelation = no
    donominal = yes
    method = standard

**** Performing nominal run for `mc1'

Notice from spectre during transient analysis `tran', during Monte Carlo analysis `mc1'.
    No checklimit analysis defined for asserts. A default checklimit analysis 'SpectreChecklimitAnal' has been created with all asserts enabled.


************************************************
Transient Analysis `tran': time = (0 s -> 20 ns)
************************************************

Notice from spectre during IC analysis, during transient analysis `tran', during Monte Carlo analysis `mc1'.
    GminDC = 1 pS is large enough to noticeably affect the DC solution.
        dV(I0.net2) = 62.8848 mV
        Use the `gmin_check' option to eliminate or expand this report.
Warning from spectre during check, during IC analysis, during transient analysis `tran', during Monte Carlo analysis `mc1'.
    WARNING (CMI-2943): Parameter checks have been ignored because the valid value for parameter 'trise' could not be found in 'C0'.

DC simulation time: CPU = 427 us, elapsed = 427.008 us.

Opening the PSF file ../psf/nom/tran.tran.tran ...
Important parameter values:
    start = 0 s
    outputstart = 0 s
    stop = 20 ns
    step = 20 ps
    maxstep = 200 ps
    ic = all
    useprevic = no
    skipdc = no
    reltol = 10e-06
    abstol(V) = 1 uV
    abstol(I) = 1 pA
    temp = 27 C
    tnom = 27 C
    tempeffects = all
    errpreset = conservative
    method = gear2only
    lteratio = 10
    relref = alllocal
    cmin = 0 F
    gmin = 1 pS
    rabsshort = 1 mOhm


Notice from spectre during transient analysis `tran', during Monte Carlo analysis `mc1'.
    Multithreading is disabled due to the size of the design being too small.


Output and IC/nodeset summary:
                 save   5       (current)
                 save   17      (voltage)

    tran: time = 525.5 ps    (2.63 %), step = 28.93 ps     (145 m%)
    tran: time = 1.518 ns    (7.59 %), step = 37.77 ps     (189 m%)
    tran: time = 2.513 ns    (12.6 %), step = 28.77 ps     (144 m%)
    tran: time = 3.532 ns    (17.7 %), step = 41.65 ps     (208 m%)
    tran: time = 4.504 ns    (22.5 %), step = 20.65 ps     (103 m%)
    tran: time = 5.511 ns    (27.6 %), step = 18.99 ps      (95 m%)
SOAC: I0.MND.soac_m1       modn V(B,PSUB): LEAVING@  0.00500272us ;
SOAC: I0.MNA.soac_m1       modn V(B,PSUB): LEAVING@  0.00500732us ;
SOAC: I0.MNA.soac_m1       modn V(B,PSUB): ENTERING@ 0.00618968us duration:0.00118us ;
SOAC: I0.MND.soac_m1       modn V(B,PSUB): ENTERING@ 0.00619026us duration:0.00119us ;
    tran: time = 6.515 ns    (32.6 %), step = 18.12 ps    (90.6 m%)
    tran: time = 7.51 ns     (37.6 %), step = 26.42 ps     (132 m%)
    tran: time = 8.509 ns    (42.5 %), step = 17.21 ps      (86 m%)
    tran: time = 9.515 ns    (47.6 %), step = 20.86 ps     (104 m%)
SOAC: I0.MND.soac_m1       modn V(B,PSUB): LEAVING@  0.00900268us ;
SOAC: I0.MNA.soac_m1       modn V(B,PSUB): LEAVING@  0.00900732us ;
SOAC: I0.MNA.soac_m1       modn V(B,PSUB): ENTERING@ 0.0101657us duration:0.00116us ;
SOAC: I0.MND.soac_m1       modn V(B,PSUB): ENTERING@ 0.0101831us duration:0.00118us ;
    tran: time = 10.5 ns     (52.5 %), step = 13.15 ps    (65.7 m%)
SOAC: I0.MND.soac_m1       modn V(B,PSUB): LEAVING@  0.0102674us ;
SOAC: I0.MND.soac_m1       modn V(B,PSUB): ENTERING@ 0.0114158us duration:0.00115us ;
    tran: time = 11.51 ns    (57.6 %), step = 21.7 ps      (108 m%)
    tran: time = 12.51 ns    (62.6 %), step = 14.77 ps    (73.9 m%)
SOAC: I0.MND.soac_m1       modn V(B,PSUB): LEAVING@  0.0122439us ;
    tran: time = 13.51 ns    (67.5 %), step = 24.81 ps     (124 m%)
    tran: time = 14.52 ns    (72.6 %), step = 27.35 ps     (137 m%)
SOAC: I0.MND.soac_m1       modn V(B,PSUB): ENTERING@ 0.015425us duration:0.00318us ;
    tran: time = 15.52 ns    (77.6 %), step = 22.69 ps     (113 m%)
    tran: time = 16.51 ns    (82.6 %), step = 14.92 ps    (74.6 m%)
SOAC: I0.MND.soac_m1       modn V(B,PSUB): LEAVING@  0.0162439us ;
    tran: time = 17.51 ns    (87.5 %), step = 24.9 ps      (125 m%)
    tran: time = 18.52 ns    (92.6 %), step = 27.32 ps     (137 m%)
SOAC: I0.MND.soac_m1       modn V(B,PSUB): ENTERING@ 0.019425us duration:0.00318us ;
    tran: time = 19.52 ns    (97.6 %), step = 22.68 ps     (113 m%)
Number of accepted tran steps =             2619

Maximum value achieved for any signal of each quantity: 
V: V(I0.net1) = 3.628 V
I: I(V:p) = 326 uA

~~~~~~~~~~~~~~~~~~~~~~~~~~~~~~~~~
Post-Transient Simulation Summary
~~~~~~~~~~~~~~~~~~~~~~~~~~~~~~~~~
   -   To further speed up simulation, consider
          add ++aps on command line
   -   Non-default settings that could significantly slow down simulation
          errpreset = conservative, default moderate
          reltol = 10e-06, default 100e-06 (conservative)
   -   Features that may significantly slowing down simulation
          asserts = 54.2767 ms
~~~~~~~~~~~~~~~~~~~~~~~~~~~~~~~~~


During simulation, the CPU load for active processors is :
         0 (1.2 %)       1 (1.2 %)       2 (32.5 %)      3 (2.4 %)
         4 (1.2 %)       5 (8.5 %)       6 (4.8 %)       7 (2.4 %)
         8 (10.8 %)      9 (1.2 %)      10 (3.6 %)      11 (19.3 %)
        Total: 89.3%
Initial condition solution time: CPU = 450 us, elapsed = 451.088 us.
Intrinsic tran analysis time:    CPU = 279.878 ms, elapsed = 289.738 ms.
Total time required for tran analysis `tran': CPU = 282.777 ms, elapsed = 309.056 ms, util. = 91.5%.
Time accumulated: CPU = 442.452 ms, elapsed = 879.759 ms.
Peak resident memory used = 190 Mbytes.

finalTimeOP: writing operating point information to rawfile.

Opening the PSF file ../psf/nom/finalTimeOP.info ...
modelParameter: writing model parameter values to rawfile.

Opening the PSF file ../psf/nom/modelParameter.info ...
element: writing instance parameter values to rawfile.

Opening the PSF file ../psf/nom/element.info ...
outputParameter: writing output parameter values to rawfile.

Opening the PSF file ../psf/nom/outputParameter.info ...
designParamVals: writing netlist parameters to rawfile.

Opening the PSFASCII file ../psf/nom/designParamVals.info ...
primitives: writing primitives to rawfile.

Opening the PSFASCII file ../psf/nom/primitives.info.primitives ...
subckts: writing subcircuits to rawfile.

Opening the PSFASCII file ../psf/nom/subckts.info.subckts ...
Opening process scalar file:  /home/oj23092/VLSI_Design_Lab/Sim/lab2024/tb_ycircuit/adexl/results/data/MonteCarlo.2/1/lab2024:tb_ycircuit:1/groupRunDataDir/netlist/../psf/../monteCarlo/processData
Opening process param file:  /home/oj23092/VLSI_Design_Lab/Sim/lab2024/tb_ycircuit/adexl/results/data/MonteCarlo.2/1/lab2024:tb_ycircuit:1/groupRunDataDir/netlist/../psf/../monteCarlo/processParam
Opening process full param file:  /home/oj23092/VLSI_Design_Lab/Sim/lab2024/tb_ycircuit/adexl/results/data/MonteCarlo.2/1/lab2024:tb_ycircuit:1/groupRunDataDir/netlist/../psf/mc1.process_full.mcparam
Opening process correlation param file:  /home/oj23092/VLSI_Design_Lab/Sim/lab2024/tb_ycircuit/adexl/results/data/MonteCarlo.2/1/lab2024:tb_ycircuit:1/groupRunDataDir/netlist/../psf/mc1.process.correlate.mcparam
Opening mismatch full param file:  /home/oj23092/VLSI_Design_Lab/Sim/lab2024/tb_ycircuit/adexl/results/data/MonteCarlo.2/1/lab2024:tb_ycircuit:1/groupRunDataDir/netlist/../psf/mc1.mismatch_full.mcparam
Opening mismatch correlation param file:  /home/oj23092/VLSI_Design_Lab/Sim/lab2024/tb_ycircuit/adexl/results/data/MonteCarlo.2/1/lab2024:tb_ycircuit:1/groupRunDataDir/netlist/../psf/mc1.mismatch.correlate.mcparam
Opening iteration number and data-directory mapping file:  /home/oj23092/VLSI_Design_Lab/Sim/lab2024/tb_ycircuit/adexl/results/data/MonteCarlo.2/1/lab2024:tb_ycircuit:1/groupRunDataDir/netlist/../psf/mc1.mapping

Statistical parameters:
    Defined process parameters: 629
    Defined mismatch parameters (subckt based): 86
    Non-referenced mismatch parameters: 86
    Number of random variables: 629
    Gaussian truncation for process parameters: 4.00 sigma
    Gaussian truncation for mismatch parameters: 4.00 sigma


Opening the PSF file ../psf/mc1_tran.montecarlo ...

Opening the PSF file ../psf/mc1_finalTimeOP.montecarlo ...

Opening the PSF file ../psf/mc1_modelParameter.montecarlo ...

Opening the PSF file ../psf/mc1_element.montecarlo ...

Opening the PSF file ../psf/mc1_outputParameter.montecarlo ...

Opening the PSF file ../psf/mc1_designParamVals.montecarlo ...

Opening the PSF file ../psf/mc1_primitives.montecarlo ...

Opening the PSF file ../psf/mc1_subckts.montecarlo ...

**** Performing monte carlo loop for `mc1'

1              0.00% 

************************************************
Transient Analysis `tran': time = (0 s -> 20 ns)
************************************************

Opening the PSF file ../psf/mc1_separate/001/tran.tran.tran ...

Notice from spectre at iteration = 1 during IC analysis, during transient analysis `tran', during Monte Carlo analysis `mc1'.
    GminDC = 1 pS is large enough to noticeably affect the DC solution.
        dV(I0.net2) = 62.8848 mV
        Use the `gmin_check' option to eliminate or expand this report.
Warning from spectre at iteration = 1 during check, during IC analysis, during transient analysis `tran', during Monte Carlo analysis `mc1'.
    WARNING (CMI-2943): Parameter checks have been ignored because the valid value for parameter 'trise' could not be found in 'C0'.

DC simulation time: CPU = 384 us, elapsed = 386.953 us.
Important parameter values:
    start = 0 s
    outputstart = 0 s
    stop = 20 ns
    step = 20 ps
    maxstep = 200 ps
    ic = all
    useprevic = no
    skipdc = no
    reltol = 10e-06
    abstol(V) = 1 uV
    abstol(I) = 1 pA
    temp = 27 C
    tnom = 27 C
    tempeffects = all
    errpreset = conservative
    method = gear2only
    lteratio = 10
    relref = alllocal
    cmin = 0 F
    gmin = 1 pS
    rabsshort = 1 mOhm


Notice from spectre at iteration = 1 during transient analysis `tran', during Monte Carlo analysis `mc1'.
    Multithreading is disabled due to the size of the design being too small.


Output and IC/nodeset summary:
                 save   5       (current)
                 save   17      (voltage)


Opening the PSF file ../psf/mc1_tranViolations.montecarlo ...
    tran: time = 525.5 ps    (2.63 %), step = 28.93 ps     (145 m%)
    tran: time = 1.518 ns    (7.59 %), step = 37.77 ps     (189 m%)
    tran: time = 2.513 ns    (12.6 %), step = 28.77 ps     (144 m%)
    tran: time = 3.532 ns    (17.7 %), step = 41.65 ps     (208 m%)
    tran: time = 4.504 ns    (22.5 %), step = 20.65 ps     (103 m%)
    tran: time = 5.511 ns    (27.6 %), step = 18.99 ps      (95 m%)
SOAC: I0.MND.soac_m1       modn V(B,PSUB): LEAVING@  0.00500272us ;
SOAC: I0.MNA.soac_m1       modn V(B,PSUB): LEAVING@  0.00500732us ;
SOAC: I0.MNA.soac_m1       modn V(B,PSUB): ENTERING@ 0.00618968us duration:0.00118us ;
SOAC: I0.MND.soac_m1       modn V(B,PSUB): ENTERING@ 0.00619026us duration:0.00119us ;
    tran: time = 6.515 ns    (32.6 %), step = 18.12 ps    (90.6 m%)
    tran: time = 7.51 ns     (37.6 %), step = 26.42 ps     (132 m%)
    tran: time = 8.509 ns    (42.5 %), step = 17.21 ps      (86 m%)
    tran: time = 9.515 ns    (47.6 %), step = 20.86 ps     (104 m%)
SOAC: I0.MND.soac_m1       modn V(B,PSUB): LEAVING@  0.00900268us ;
SOAC: I0.MNA.soac_m1       modn V(B,PSUB): LEAVING@  0.00900732us ;
SOAC: I0.MNA.soac_m1       modn V(B,PSUB): ENTERING@ 0.0101657us duration:0.00116us ;
SOAC: I0.MND.soac_m1       modn V(B,PSUB): ENTERING@ 0.0101831us duration:0.00118us ;
    tran: time = 10.5 ns     (52.5 %), step = 13.15 ps    (65.7 m%)
SOAC: I0.MND.soac_m1       modn V(B,PSUB): LEAVING@  0.0102674us ;
SOAC: I0.MND.soac_m1       modn V(B,PSUB): ENTERING@ 0.0114158us duration:0.00115us ;
    tran: time = 11.51 ns    (57.6 %), step = 21.7 ps      (108 m%)
    tran: time = 12.51 ns    (62.6 %), step = 14.77 ps    (73.9 m%)
SOAC: I0.MND.soac_m1       modn V(B,PSUB): LEAVING@  0.0122439us ;
    tran: time = 13.51 ns    (67.5 %), step = 24.81 ps     (124 m%)
    tran: time = 14.52 ns    (72.6 %), step = 27.35 ps     (137 m%)
SOAC: I0.MND.soac_m1       modn V(B,PSUB): ENTERING@ 0.015425us duration:0.00318us ;
    tran: time = 15.52 ns    (77.6 %), step = 22.69 ps     (113 m%)
    tran: time = 16.51 ns    (82.6 %), step = 14.92 ps    (74.6 m%)
SOAC: I0.MND.soac_m1       modn V(B,PSUB): LEAVING@  0.0162439us ;
    tran: time = 17.51 ns    (87.5 %), step = 24.9 ps      (125 m%)
    tran: time = 18.52 ns    (92.6 %), step = 27.32 ps     (137 m%)
SOAC: I0.MND.soac_m1       modn V(B,PSUB): ENTERING@ 0.019425us duration:0.00318us ;
    tran: time = 19.52 ns    (97.6 %), step = 22.68 ps     (113 m%)
Number of accepted tran steps =             2619

Maximum value achieved for any signal of each quantity: 
V: V(I0.net1) = 3.628 V
I: I(V:p) = 326 uA

~~~~~~~~~~~~~~~~~~~~~~~~~~~~~~~~~
Post-Transient Simulation Summary
~~~~~~~~~~~~~~~~~~~~~~~~~~~~~~~~~
   -   To further speed up simulation, consider
          add ++aps on command line
   -   Non-default settings that could significantly slow down simulation
          errpreset = conservative, default moderate
          reltol = 10e-06, default 100e-06 (conservative)
~~~~~~~~~~~~~~~~~~~~~~~~~~~~~~~~~


During simulation, the CPU load for active processors is :
         2 (22.9 %)      3 (1.7 %)       5 (28.6 %)      6 (4.2 %)
         7 (1.7 %)       8 (7.6 %)      10 (2.5 %)      11 (14.3 %)
        Total: 86.7%
Initial condition solution time: CPU = 401 us, elapsed = 404.835 us.
Intrinsic tran analysis time:    CPU = 250.139 ms, elapsed = 260.341 ms.
Total time required for tran analysis `tran': CPU = 251.945 ms, elapsed = 270.927 ms, util. = 93%.
Time accumulated: CPU = 721.234 ms, elapsed = 1.22465 s.
Peak resident memory used = 198 Mbytes.

finalTimeOP: writing operating point information to rawfile.

Opening the PSF file ../psf/mc1_separate/001/finalTimeOP.info ...
modelParameter: writing model parameter values to rawfile.

Opening the PSF file ../psf/mc1_separate/001/modelParameter.info ...
element: writing instance parameter values to rawfile.

Opening the PSF file ../psf/mc1_separate/001/element.info ...
outputParameter: writing output parameter values to rawfile.

Opening the PSF file ../psf/mc1_separate/001/outputParameter.info ...
designParamVals: writing netlist parameters to rawfile.

Opening the PSFASCII file ../psf/mc1_separate/001/designParamVals.info ...
primitives: writing primitives to rawfile.

Opening the PSFASCII file ../psf/mc1_separate/001/primitives.info.primitives ...
subckts: writing subcircuits to rawfile.

Opening the PSFASCII file ../psf/mc1_separate/001/subckts.info.subckts ...
2              0.50% 

************************************************
Transient Analysis `tran': time = (0 s -> 20 ns)
************************************************

Opening the PSF file ../psf/mc1_separate/002/tran.tran.tran ...

Notice from spectre during IC analysis, during transient analysis `tran', during Monte Carlo analysis `mc1'.
    GminDC = 1 pS is large enough to noticeably affect the DC solution.
        dV(I0.net2) = 62.8848 mV
        Use the `gmin_check' option to eliminate or expand this report.
Warning from spectre during check, during IC analysis, during transient analysis `tran', during Monte Carlo analysis `mc1'.
    WARNING (CMI-2943): Parameter checks have been ignored because the valid value for parameter 'trise' could not be found in 'C0'.

DC simulation time: CPU = 413 us, elapsed = 413.895 us.
Important parameter values:
    start = 0 s
    outputstart = 0 s
    stop = 20 ns
    step = 20 ps
    maxstep = 200 ps
    ic = all
    useprevic = no
    skipdc = no
    reltol = 10e-06
    abstol(V) = 1 uV
    abstol(I) = 1 pA
    temp = 27 C
    tnom = 27 C
    tempeffects = all
    errpreset = conservative
    method = gear2only
    lteratio = 10
    relref = alllocal
    cmin = 0 F
    gmin = 1 pS
    rabsshort = 1 mOhm


Notice from spectre during transient analysis `tran', during Monte Carlo analysis `mc1'.
    Multithreading is disabled due to the size of the design being too small.


Output and IC/nodeset summary:
                 save   5       (current)
                 save   17      (voltage)

    tran: time = 525.5 ps    (2.63 %), step = 28.93 ps     (145 m%)
    tran: time = 1.518 ns    (7.59 %), step = 37.77 ps     (189 m%)
    tran: time = 2.513 ns    (12.6 %), step = 28.77 ps     (144 m%)
    tran: time = 3.532 ns    (17.7 %), step = 41.65 ps     (208 m%)
    tran: time = 4.504 ns    (22.5 %), step = 20.65 ps     (103 m%)
    tran: time = 5.511 ns    (27.6 %), step = 18.99 ps      (95 m%)
SOAC: I0.MND.soac_m1       modn V(B,PSUB): LEAVING@  0.00500272us ;
SOAC: I0.MNA.soac_m1       modn V(B,PSUB): LEAVING@  0.00500732us ;
SOAC: I0.MNA.soac_m1       modn V(B,PSUB): ENTERING@ 0.00618968us duration:0.00118us ;
SOAC: I0.MND.soac_m1       modn V(B,PSUB): ENTERING@ 0.00619026us duration:0.00119us ;
    tran: time = 6.515 ns    (32.6 %), step = 18.12 ps    (90.6 m%)
    tran: time = 7.51 ns     (37.6 %), step = 26.42 ps     (132 m%)
    tran: time = 8.509 ns    (42.5 %), step = 17.21 ps      (86 m%)
    tran: time = 9.515 ns    (47.6 %), step = 20.86 ps     (104 m%)
SOAC: I0.MND.soac_m1       modn V(B,PSUB): LEAVING@  0.00900268us ;
SOAC: I0.MNA.soac_m1       modn V(B,PSUB): LEAVING@  0.00900732us ;
SOAC: I0.MNA.soac_m1       modn V(B,PSUB): ENTERING@ 0.0101657us duration:0.00116us ;
SOAC: I0.MND.soac_m1       modn V(B,PSUB): ENTERING@ 0.0101831us duration:0.00118us ;
    tran: time = 10.5 ns     (52.5 %), step = 13.15 ps    (65.7 m%)
SOAC: I0.MND.soac_m1       modn V(B,PSUB): LEAVING@  0.0102674us ;
SOAC: I0.MND.soac_m1       modn V(B,PSUB): ENTERING@ 0.0114158us duration:0.00115us ;
    tran: time = 11.51 ns    (57.6 %), step = 21.7 ps      (108 m%)
    tran: time = 12.51 ns    (62.6 %), step = 14.77 ps    (73.9 m%)
SOAC: I0.MND.soac_m1       modn V(B,PSUB): LEAVING@  0.0122439us ;
    tran: time = 13.51 ns    (67.5 %), step = 24.81 ps     (124 m%)
    tran: time = 14.52 ns    (72.6 %), step = 27.35 ps     (137 m%)
SOAC: I0.MND.soac_m1       modn V(B,PSUB): ENTERING@ 0.015425us duration:0.00318us ;
    tran: time = 15.52 ns    (77.6 %), step = 22.69 ps     (113 m%)
    tran: time = 16.51 ns    (82.6 %), step = 14.92 ps    (74.6 m%)
SOAC: I0.MND.soac_m1       modn V(B,PSUB): LEAVING@  0.0162439us ;
    tran: time = 17.51 ns    (87.5 %), step = 24.9 ps      (125 m%)
    tran: time = 18.52 ns    (92.6 %), step = 27.32 ps     (137 m%)
SOAC: I0.MND.soac_m1       modn V(B,PSUB): ENTERING@ 0.019425us duration:0.00318us ;
    tran: time = 19.52 ns    (97.6 %), step = 22.68 ps     (113 m%)
Number of accepted tran steps =             2619

Maximum value achieved for any signal of each quantity: 
V: V(I0.net1) = 3.628 V
I: I(V:p) = 326 uA

~~~~~~~~~~~~~~~~~~~~~~~~~~~~~~~~~
Post-Transient Simulation Summary
~~~~~~~~~~~~~~~~~~~~~~~~~~~~~~~~~
   -   To further speed up simulation, consider
          add ++aps on command line
   -   Non-default settings that could significantly slow down simulation
          errpreset = conservative, default moderate
          reltol = 10e-06, default 100e-06 (conservative)
~~~~~~~~~~~~~~~~~~~~~~~~~~~~~~~~~


During simulation, the CPU load for active processors is :
         0 (1.3 %)       1 (2.0 %)       2 (18.5 %)      3 (2.0 %)
         5 (41.4 %)      6 (3.3 %)       7 (1.3 %)       8 (6.0 %)
        10 (2.0 %)      11 (11.9 %)     
        Total: 91.1%
Initial condition solution time: CPU = 452 us, elapsed = 452.042 us.
Intrinsic tran analysis time:    CPU = 256.261 ms, elapsed = 266.355 ms.
Total time required for tran analysis `tran': CPU = 257.903 ms, elapsed = 276.475 ms, util. = 93.3%.
Time accumulated: CPU = 996.601 ms, elapsed = 1.54755 s.
Peak resident memory used = 198 Mbytes.

finalTimeOP: writing operating point information to rawfile.

Opening the PSF file ../psf/mc1_separate/002/finalTimeOP.info ...
modelParameter: writing model parameter values to rawfile.

Opening the PSF file ../psf/mc1_separate/002/modelParameter.info ...
element: writing instance parameter values to rawfile.

Opening the PSF file ../psf/mc1_separate/002/element.info ...
outputParameter: writing output parameter values to rawfile.

Opening the PSF file ../psf/mc1_separate/002/outputParameter.info ...
designParamVals: writing netlist parameters to rawfile.

Opening the PSFASCII file ../psf/mc1_separate/002/designParamVals.info ...
primitives: writing primitives to rawfile.

Opening the PSFASCII file ../psf/mc1_separate/002/primitives.info.primitives ...
subckts: writing subcircuits to rawfile.

Opening the PSFASCII file ../psf/mc1_separate/002/subckts.info.subckts ...
3              1.01% 

************************************************
Transient Analysis `tran': time = (0 s -> 20 ns)
************************************************

Opening the PSF file ../psf/mc1_separate/003/tran.tran.tran ...

Notice from spectre during IC analysis, during transient analysis `tran', during Monte Carlo analysis `mc1'.
    GminDC = 1 pS is large enough to noticeably affect the DC solution.
        dV(I0.net2) = 62.8848 mV
        Use the `gmin_check' option to eliminate or expand this report.
Warning from spectre during check, during IC analysis, during transient analysis `tran', during Monte Carlo analysis `mc1'.
    WARNING (CMI-2943): Parameter checks have been ignored because the valid value for parameter 'trise' could not be found in 'C0'.

DC simulation time: CPU = 341 us, elapsed = 341.177 us.
Important parameter values:
    start = 0 s
    outputstart = 0 s
    stop = 20 ns
    step = 20 ps
    maxstep = 200 ps
    ic = all
    useprevic = no
    skipdc = no
    reltol = 10e-06
    abstol(V) = 1 uV
    abstol(I) = 1 pA
    temp = 27 C
    tnom = 27 C
    tempeffects = all
    errpreset = conservative
    method = gear2only
    lteratio = 10
    relref = alllocal
    cmin = 0 F
    gmin = 1 pS
    rabsshort = 1 mOhm


Notice from spectre during transient analysis `tran', during Monte Carlo analysis `mc1'.
    Multithreading is disabled due to the size of the design being too small.


Output and IC/nodeset summary:
                 save   5       (current)
                 save   17      (voltage)

    tran: time = 525.5 ps    (2.63 %), step = 28.93 ps     (145 m%)
    tran: time = 1.518 ns    (7.59 %), step = 37.77 ps     (189 m%)
    tran: time = 2.513 ns    (12.6 %), step = 28.77 ps     (144 m%)
    tran: time = 3.532 ns    (17.7 %), step = 41.65 ps     (208 m%)
    tran: time = 4.504 ns    (22.5 %), step = 20.65 ps     (103 m%)
    tran: time = 5.511 ns    (27.6 %), step = 18.99 ps      (95 m%)
SOAC: I0.MND.soac_m1       modn V(B,PSUB): LEAVING@  0.00500272us ;
SOAC: I0.MNA.soac_m1       modn V(B,PSUB): LEAVING@  0.00500732us ;
SOAC: I0.MNA.soac_m1       modn V(B,PSUB): ENTERING@ 0.00618968us duration:0.00118us ;
SOAC: I0.MND.soac_m1       modn V(B,PSUB): ENTERING@ 0.00619026us duration:0.00119us ;
    tran: time = 6.515 ns    (32.6 %), step = 18.12 ps    (90.6 m%)
    tran: time = 7.51 ns     (37.6 %), step = 26.42 ps     (132 m%)
    tran: time = 8.509 ns    (42.5 %), step = 17.21 ps      (86 m%)
    tran: time = 9.515 ns    (47.6 %), step = 20.86 ps     (104 m%)
SOAC: I0.MND.soac_m1       modn V(B,PSUB): LEAVING@  0.00900268us ;
SOAC: I0.MNA.soac_m1       modn V(B,PSUB): LEAVING@  0.00900732us ;
SOAC: I0.MNA.soac_m1       modn V(B,PSUB): ENTERING@ 0.0101657us duration:0.00116us ;
SOAC: I0.MND.soac_m1       modn V(B,PSUB): ENTERING@ 0.0101831us duration:0.00118us ;
    tran: time = 10.5 ns     (52.5 %), step = 13.15 ps    (65.7 m%)
SOAC: I0.MND.soac_m1       modn V(B,PSUB): LEAVING@  0.0102674us ;
SOAC: I0.MND.soac_m1       modn V(B,PSUB): ENTERING@ 0.0114158us duration:0.00115us ;
    tran: time = 11.51 ns    (57.6 %), step = 21.7 ps      (108 m%)
    tran: time = 12.51 ns    (62.6 %), step = 14.77 ps    (73.9 m%)
SOAC: I0.MND.soac_m1       modn V(B,PSUB): LEAVING@  0.0122439us ;
    tran: time = 13.51 ns    (67.5 %), step = 24.81 ps     (124 m%)
    tran: time = 14.52 ns    (72.6 %), step = 27.35 ps     (137 m%)
SOAC: I0.MND.soac_m1       modn V(B,PSUB): ENTERING@ 0.015425us duration:0.00318us ;
    tran: time = 15.52 ns    (77.6 %), step = 22.69 ps     (113 m%)
    tran: time = 16.51 ns    (82.6 %), step = 14.92 ps    (74.6 m%)
SOAC: I0.MND.soac_m1       modn V(B,PSUB): LEAVING@  0.0162439us ;
    tran: time = 17.51 ns    (87.5 %), step = 24.9 ps      (125 m%)
    tran: time = 18.52 ns    (92.6 %), step = 27.32 ps     (137 m%)
SOAC: I0.MND.soac_m1       modn V(B,PSUB): ENTERING@ 0.019425us duration:0.00318us ;
    tran: time = 19.52 ns    (97.6 %), step = 22.68 ps     (113 m%)
Number of accepted tran steps =             2619

Maximum value achieved for any signal of each quantity: 
V: V(I0.net1) = 3.628 V
I: I(V:p) = 326 uA

~~~~~~~~~~~~~~~~~~~~~~~~~~~~~~~~~
Post-Transient Simulation Summary
~~~~~~~~~~~~~~~~~~~~~~~~~~~~~~~~~
   -   To further speed up simulation, consider
          add ++aps on command line
   -   Non-default settings that could significantly slow down simulation
          errpreset = conservative, default moderate
          reltol = 10e-06, default 100e-06 (conservative)
~~~~~~~~~~~~~~~~~~~~~~~~~~~~~~~~~


During simulation, the CPU load for active processors is :
         0 (1.1 %)       1 (1.7 %)       2 (15.3 %)      3 (1.6 %)
         4 (1.1 %)       5 (36.1 %)      6 (2.7 %)       7 (1.1 %)
         8 (5.4 %)      10 (1.6 %)      11 (22.5 %)     
        Total: 90.8%
Initial condition solution time: CPU = 357 us, elapsed = 357.866 us.
Intrinsic tran analysis time:    CPU = 249.185 ms, elapsed = 257.974 ms.
Total time required for tran analysis `tran': CPU = 250.632 ms, elapsed = 267.632 ms, util. = 93.6%.
Time accumulated: CPU = 1.2639 s, elapsed = 1.86265 s.
Peak resident memory used = 198 Mbytes.

finalTimeOP: writing operating point information to rawfile.

Opening the PSF file ../psf/mc1_separate/003/finalTimeOP.info ...
modelParameter: writing model parameter values to rawfile.

Opening the PSF file ../psf/mc1_separate/003/modelParameter.info ...
element: writing instance parameter values to rawfile.

Opening the PSF file ../psf/mc1_separate/003/element.info ...
outputParameter: writing output parameter values to rawfile.

Opening the PSF file ../psf/mc1_separate/003/outputParameter.info ...
designParamVals: writing netlist parameters to rawfile.

Opening the PSFASCII file ../psf/mc1_separate/003/designParamVals.info ...
primitives: writing primitives to rawfile.

Opening the PSFASCII file ../psf/mc1_separate/003/primitives.info.primitives ...
subckts: writing subcircuits to rawfile.

Opening the PSFASCII file ../psf/mc1_separate/003/subckts.info.subckts ...
4              1.51% 

************************************************
Transient Analysis `tran': time = (0 s -> 20 ns)
************************************************

Opening the PSF file ../psf/mc1_separate/004/tran.tran.tran ...

Notice from spectre during IC analysis, during transient analysis `tran', during Monte Carlo analysis `mc1'.
    GminDC = 1 pS is large enough to noticeably affect the DC solution.
        dV(I0.net2) = 62.8848 mV
        Use the `gmin_check' option to eliminate or expand this report.
Warning from spectre during check, during IC analysis, during transient analysis `tran', during Monte Carlo analysis `mc1'.
    WARNING (CMI-2943): Parameter checks have been ignored because the valid value for parameter 'trise' could not be found in 'C0'.

DC simulation time: CPU = 650 us, elapsed = 652.075 us.
Important parameter values:
    start = 0 s
    outputstart = 0 s
    stop = 20 ns
    step = 20 ps
    maxstep = 200 ps
    ic = all
    useprevic = no
    skipdc = no
    reltol = 10e-06
    abstol(V) = 1 uV
    abstol(I) = 1 pA
    temp = 27 C
    tnom = 27 C
    tempeffects = all
    errpreset = conservative
    method = gear2only
    lteratio = 10
    relref = alllocal
    cmin = 0 F
    gmin = 1 pS
    rabsshort = 1 mOhm


Notice from spectre during transient analysis `tran', during Monte Carlo analysis `mc1'.
    Multithreading is disabled due to the size of the design being too small.


Output and IC/nodeset summary:
                 save   5       (current)
                 save   17      (voltage)

    tran: time = 525.5 ps    (2.63 %), step = 28.93 ps     (145 m%)
    tran: time = 1.518 ns    (7.59 %), step = 37.77 ps     (189 m%)
    tran: time = 2.513 ns    (12.6 %), step = 28.77 ps     (144 m%)
    tran: time = 3.532 ns    (17.7 %), step = 41.65 ps     (208 m%)
    tran: time = 4.504 ns    (22.5 %), step = 20.65 ps     (103 m%)
    tran: time = 5.511 ns    (27.6 %), step = 18.99 ps      (95 m%)
SOAC: I0.MND.soac_m1       modn V(B,PSUB): LEAVING@  0.00500272us ;
SOAC: I0.MNA.soac_m1       modn V(B,PSUB): LEAVING@  0.00500732us ;
SOAC: I0.MNA.soac_m1       modn V(B,PSUB): ENTERING@ 0.00618968us duration:0.00118us ;
SOAC: I0.MND.soac_m1       modn V(B,PSUB): ENTERING@ 0.00619026us duration:0.00119us ;
    tran: time = 6.515 ns    (32.6 %), step = 18.12 ps    (90.6 m%)
    tran: time = 7.51 ns     (37.6 %), step = 26.42 ps     (132 m%)
    tran: time = 8.509 ns    (42.5 %), step = 17.21 ps      (86 m%)
    tran: time = 9.515 ns    (47.6 %), step = 20.86 ps     (104 m%)
SOAC: I0.MND.soac_m1       modn V(B,PSUB): LEAVING@  0.00900268us ;
SOAC: I0.MNA.soac_m1       modn V(B,PSUB): LEAVING@  0.00900732us ;
SOAC: I0.MNA.soac_m1       modn V(B,PSUB): ENTERING@ 0.0101657us duration:0.00116us ;
SOAC: I0.MND.soac_m1       modn V(B,PSUB): ENTERING@ 0.0101831us duration:0.00118us ;
    tran: time = 10.5 ns     (52.5 %), step = 13.15 ps    (65.7 m%)
SOAC: I0.MND.soac_m1       modn V(B,PSUB): LEAVING@  0.0102674us ;
SOAC: I0.MND.soac_m1       modn V(B,PSUB): ENTERING@ 0.0114158us duration:0.00115us ;
    tran: time = 11.51 ns    (57.6 %), step = 21.7 ps      (108 m%)
    tran: time = 12.51 ns    (62.6 %), step = 14.77 ps    (73.9 m%)
SOAC: I0.MND.soac_m1       modn V(B,PSUB): LEAVING@  0.0122439us ;
    tran: time = 13.51 ns    (67.5 %), step = 24.81 ps     (124 m%)
    tran: time = 14.52 ns    (72.6 %), step = 27.35 ps     (137 m%)
SOAC: I0.MND.soac_m1       modn V(B,PSUB): ENTERING@ 0.015425us duration:0.00318us ;
    tran: time = 15.52 ns    (77.6 %), step = 22.69 ps     (113 m%)
    tran: time = 16.51 ns    (82.6 %), step = 14.92 ps    (74.6 m%)
SOAC: I0.MND.soac_m1       modn V(B,PSUB): LEAVING@  0.0162439us ;
    tran: time = 17.51 ns    (87.5 %), step = 24.9 ps      (125 m%)
    tran: time = 18.52 ns    (92.6 %), step = 27.32 ps     (137 m%)
SOAC: I0.MND.soac_m1       modn V(B,PSUB): ENTERING@ 0.019425us duration:0.00318us ;
    tran: time = 19.52 ns    (97.6 %), step = 22.68 ps     (113 m%)
Number of accepted tran steps =             2619

Maximum value achieved for any signal of each quantity: 
V: V(I0.net1) = 3.628 V
I: I(V:p) = 326 uA

~~~~~~~~~~~~~~~~~~~~~~~~~~~~~~~~~
Post-Transient Simulation Summary
~~~~~~~~~~~~~~~~~~~~~~~~~~~~~~~~~
   -   To further speed up simulation, consider
          add ++aps on command line
   -   Non-default settings that could significantly slow down simulation
          errpreset = conservative, default moderate
          reltol = 10e-06, default 100e-06 (conservative)
~~~~~~~~~~~~~~~~~~~~~~~~~~~~~~~~~


During simulation, the CPU load for active processors is :
         1 (2.3 %)       2 (13.6 %)      3 (2.3 %)       4 (12.2 %)
         5 (33.3 %)      6 (2.8 %)       7 (4.7 %)       8 (6.1 %)
        10 (1.9 %)      11 (21.5 %)     
        Total: 102.6%
Initial condition solution time: CPU = 677 us, elapsed = 679.97 us.
Intrinsic tran analysis time:    CPU = 251.308 ms, elapsed = 257.829 ms.
Total time required for tran analysis `tran': CPU = 253.406 ms, elapsed = 266.573 ms, util. = 95.1%.
Time accumulated: CPU = 1.53108 s, elapsed = 2.17091 s.
Peak resident memory used = 198 Mbytes.

finalTimeOP: writing operating point information to rawfile.

Opening the PSF file ../psf/mc1_separate/004/finalTimeOP.info ...
modelParameter: writing model parameter values to rawfile.

Opening the PSF file ../psf/mc1_separate/004/modelParameter.info ...
element: writing instance parameter values to rawfile.

Opening the PSF file ../psf/mc1_separate/004/element.info ...
outputParameter: writing output parameter values to rawfile.

Opening the PSF file ../psf/mc1_separate/004/outputParameter.info ...
designParamVals: writing netlist parameters to rawfile.

Opening the PSFASCII file ../psf/mc1_separate/004/designParamVals.info ...
primitives: writing primitives to rawfile.

Opening the PSFASCII file ../psf/mc1_separate/004/primitives.info.primitives ...
subckts: writing subcircuits to rawfile.

Opening the PSFASCII file ../psf/mc1_separate/004/subckts.info.subckts ...
5              2.01% 

************************************************
Transient Analysis `tran': time = (0 s -> 20 ns)
************************************************

Opening the PSF file ../psf/mc1_separate/005/tran.tran.tran ...

Notice from spectre during IC analysis, during transient analysis `tran', during Monte Carlo analysis `mc1'.
    GminDC = 1 pS is large enough to noticeably affect the DC solution.
        dV(I0.net2) = 62.8848 mV
        Use the `gmin_check' option to eliminate or expand this report.
Warning from spectre during check, during IC analysis, during transient analysis `tran', during Monte Carlo analysis `mc1'.
    WARNING (CMI-2943): Parameter checks have been ignored because the valid value for parameter 'trise' could not be found in 'C0'.

DC simulation time: CPU = 580 us, elapsed = 580.072 us.
Important parameter values:
    start = 0 s
    outputstart = 0 s
    stop = 20 ns
    step = 20 ps
    maxstep = 200 ps
    ic = all
    useprevic = no
    skipdc = no
    reltol = 10e-06
    abstol(V) = 1 uV
    abstol(I) = 1 pA
    temp = 27 C
    tnom = 27 C
    tempeffects = all
    errpreset = conservative
    method = gear2only
    lteratio = 10
    relref = alllocal
    cmin = 0 F
    gmin = 1 pS
    rabsshort = 1 mOhm


Notice from spectre during transient analysis `tran', during Monte Carlo analysis `mc1'.
    Multithreading is disabled due to the size of the design being too small.


Output and IC/nodeset summary:
                 save   5       (current)
                 save   17      (voltage)

    tran: time = 525.5 ps    (2.63 %), step = 28.93 ps     (145 m%)
    tran: time = 1.518 ns    (7.59 %), step = 37.77 ps     (189 m%)
    tran: time = 2.513 ns    (12.6 %), step = 28.77 ps     (144 m%)
    tran: time = 3.532 ns    (17.7 %), step = 41.65 ps     (208 m%)
    tran: time = 4.504 ns    (22.5 %), step = 20.65 ps     (103 m%)
    tran: time = 5.511 ns    (27.6 %), step = 18.99 ps      (95 m%)
SOAC: I0.MND.soac_m1       modn V(B,PSUB): LEAVING@  0.00500272us ;
SOAC: I0.MNA.soac_m1       modn V(B,PSUB): LEAVING@  0.00500732us ;
SOAC: I0.MNA.soac_m1       modn V(B,PSUB): ENTERING@ 0.00618968us duration:0.00118us ;
SOAC: I0.MND.soac_m1       modn V(B,PSUB): ENTERING@ 0.00619026us duration:0.00119us ;
    tran: time = 6.515 ns    (32.6 %), step = 18.12 ps    (90.6 m%)
    tran: time = 7.51 ns     (37.6 %), step = 26.42 ps     (132 m%)
    tran: time = 8.509 ns    (42.5 %), step = 17.21 ps      (86 m%)
    tran: time = 9.515 ns    (47.6 %), step = 20.86 ps     (104 m%)
SOAC: I0.MND.soac_m1       modn V(B,PSUB): LEAVING@  0.00900268us ;
SOAC: I0.MNA.soac_m1       modn V(B,PSUB): LEAVING@  0.00900732us ;
SOAC: I0.MNA.soac_m1       modn V(B,PSUB): ENTERING@ 0.0101657us duration:0.00116us ;
SOAC: I0.MND.soac_m1       modn V(B,PSUB): ENTERING@ 0.0101831us duration:0.00118us ;
    tran: time = 10.5 ns     (52.5 %), step = 13.15 ps    (65.7 m%)
SOAC: I0.MND.soac_m1       modn V(B,PSUB): LEAVING@  0.0102674us ;
SOAC: I0.MND.soac_m1       modn V(B,PSUB): ENTERING@ 0.0114158us duration:0.00115us ;
    tran: time = 11.51 ns    (57.6 %), step = 21.7 ps      (108 m%)
    tran: time = 12.51 ns    (62.6 %), step = 14.77 ps    (73.9 m%)
SOAC: I0.MND.soac_m1       modn V(B,PSUB): LEAVING@  0.0122439us ;
    tran: time = 13.51 ns    (67.5 %), step = 24.81 ps     (124 m%)
    tran: time = 14.52 ns    (72.6 %), step = 27.35 ps     (137 m%)
SOAC: I0.MND.soac_m1       modn V(B,PSUB): ENTERING@ 0.015425us duration:0.00318us ;
    tran: time = 15.52 ns    (77.6 %), step = 22.69 ps     (113 m%)
    tran: time = 16.51 ns    (82.6 %), step = 14.92 ps    (74.6 m%)
SOAC: I0.MND.soac_m1       modn V(B,PSUB): LEAVING@  0.0162439us ;
    tran: time = 17.51 ns    (87.5 %), step = 24.9 ps      (125 m%)
    tran: time = 18.52 ns    (92.6 %), step = 27.32 ps     (137 m%)
SOAC: I0.MND.soac_m1       modn V(B,PSUB): ENTERING@ 0.019425us duration:0.00318us ;
    tran: time = 19.52 ns    (97.6 %), step = 22.68 ps     (113 m%)
Number of accepted tran steps =             2619

Maximum value achieved for any signal of each quantity: 
V: V(I0.net1) = 3.628 V
I: I(V:p) = 326 uA

~~~~~~~~~~~~~~~~~~~~~~~~~~~~~~~~~
Post-Transient Simulation Summary
~~~~~~~~~~~~~~~~~~~~~~~~~~~~~~~~~
   -   To further speed up simulation, consider
          add ++aps on command line
   -   Non-default settings that could significantly slow down simulation
          errpreset = conservative, default moderate
          reltol = 10e-06, default 100e-06 (conservative)
~~~~~~~~~~~~~~~~~~~~~~~~~~~~~~~~~


During simulation, the CPU load for active processors is :
         0 (5.7 %)       1 (3.7 %)       2 (13.9 %)      3 (3.3 %)
         4 (11.0 %)      5 (30.5 %)      6 (3.3 %)       7 (6.5 %)
         8 (7.3 %)       9 (1.2 %)      10 (2.4 %)      11 (28.6 %)
        Total: 117.3%
Initial condition solution time: CPU = 603 us, elapsed = 603.914 us.
Intrinsic tran analysis time:    CPU = 259.109 ms, elapsed = 273.385 ms.
Total time required for tran analysis `tran': CPU = 260.906 ms, elapsed = 281.837 ms, util. = 92.6%.
Time accumulated: CPU = 1.80696 s, elapsed = 2.49452 s.
Peak resident memory used = 198 Mbytes.

finalTimeOP: writing operating point information to rawfile.

Opening the PSF file ../psf/mc1_separate/005/finalTimeOP.info ...
modelParameter: writing model parameter values to rawfile.

Opening the PSF file ../psf/mc1_separate/005/modelParameter.info ...
element: writing instance parameter values to rawfile.

Opening the PSF file ../psf/mc1_separate/005/element.info ...
outputParameter: writing output parameter values to rawfile.

Opening the PSF file ../psf/mc1_separate/005/outputParameter.info ...
designParamVals: writing netlist parameters to rawfile.

Opening the PSFASCII file ../psf/mc1_separate/005/designParamVals.info ...
primitives: writing primitives to rawfile.

Opening the PSFASCII file ../psf/mc1_separate/005/primitives.info.primitives ...
subckts: writing subcircuits to rawfile.

Opening the PSFASCII file ../psf/mc1_separate/005/subckts.info.subckts ...
6              2.51% 

************************************************
Transient Analysis `tran': time = (0 s -> 20 ns)
************************************************

Opening the PSF file ../psf/mc1_separate/006/tran.tran.tran ...

Notice from spectre during IC analysis, during transient analysis `tran', during Monte Carlo analysis `mc1'.
    GminDC = 1 pS is large enough to noticeably affect the DC solution.
        dV(I0.net2) = 62.8848 mV
        Use the `gmin_check' option to eliminate or expand this report.
Warning from spectre during check, during IC analysis, during transient analysis `tran', during Monte Carlo analysis `mc1'.
    WARNING (CMI-2943): Parameter checks have been ignored because the valid value for parameter 'trise' could not be found in 'C0'.

DC simulation time: CPU = 368 us, elapsed = 688.791 us.
Important parameter values:
    start = 0 s
    outputstart = 0 s
    stop = 20 ns
    step = 20 ps
    maxstep = 200 ps
    ic = all
    useprevic = no
    skipdc = no
    reltol = 10e-06
    abstol(V) = 1 uV
    abstol(I) = 1 pA
    temp = 27 C
    tnom = 27 C
    tempeffects = all
    errpreset = conservative
    method = gear2only
    lteratio = 10
    relref = alllocal
    cmin = 0 F
    gmin = 1 pS
    rabsshort = 1 mOhm


Notice from spectre during transient analysis `tran', during Monte Carlo analysis `mc1'.
    Multithreading is disabled due to the size of the design being too small.


Output and IC/nodeset summary:
                 save   5       (current)
                 save   17      (voltage)

    tran: time = 525.5 ps    (2.63 %), step = 28.93 ps     (145 m%)
    tran: time = 1.518 ns    (7.59 %), step = 37.77 ps     (189 m%)
    tran: time = 2.513 ns    (12.6 %), step = 28.77 ps     (144 m%)
    tran: time = 3.532 ns    (17.7 %), step = 41.65 ps     (208 m%)
    tran: time = 4.504 ns    (22.5 %), step = 20.65 ps     (103 m%)
    tran: time = 5.511 ns    (27.6 %), step = 18.99 ps      (95 m%)
SOAC: I0.MND.soac_m1       modn V(B,PSUB): LEAVING@  0.00500272us ;
SOAC: I0.MNA.soac_m1       modn V(B,PSUB): LEAVING@  0.00500732us ;
SOAC: I0.MNA.soac_m1       modn V(B,PSUB): ENTERING@ 0.00618968us duration:0.00118us ;
SOAC: I0.MND.soac_m1       modn V(B,PSUB): ENTERING@ 0.00619026us duration:0.00119us ;
    tran: time = 6.515 ns    (32.6 %), step = 18.12 ps    (90.6 m%)
    tran: time = 7.51 ns     (37.6 %), step = 26.42 ps     (132 m%)
    tran: time = 8.509 ns    (42.5 %), step = 17.21 ps      (86 m%)
    tran: time = 9.515 ns    (47.6 %), step = 20.86 ps     (104 m%)
SOAC: I0.MND.soac_m1       modn V(B,PSUB): LEAVING@  0.00900268us ;
SOAC: I0.MNA.soac_m1       modn V(B,PSUB): LEAVING@  0.00900732us ;
SOAC: I0.MNA.soac_m1       modn V(B,PSUB): ENTERING@ 0.0101657us duration:0.00116us ;
SOAC: I0.MND.soac_m1       modn V(B,PSUB): ENTERING@ 0.0101831us duration:0.00118us ;
    tran: time = 10.5 ns     (52.5 %), step = 13.15 ps    (65.7 m%)
SOAC: I0.MND.soac_m1       modn V(B,PSUB): LEAVING@  0.0102674us ;
SOAC: I0.MND.soac_m1       modn V(B,PSUB): ENTERING@ 0.0114158us duration:0.00115us ;
    tran: time = 11.51 ns    (57.6 %), step = 21.7 ps      (108 m%)
    tran: time = 12.51 ns    (62.6 %), step = 14.77 ps    (73.9 m%)
SOAC: I0.MND.soac_m1       modn V(B,PSUB): LEAVING@  0.0122439us ;
    tran: time = 13.51 ns    (67.5 %), step = 24.81 ps     (124 m%)
    tran: time = 14.52 ns    (72.6 %), step = 27.35 ps     (137 m%)
SOAC: I0.MND.soac_m1       modn V(B,PSUB): ENTERING@ 0.015425us duration:0.00318us ;
    tran: time = 15.52 ns    (77.6 %), step = 22.69 ps     (113 m%)
    tran: time = 16.51 ns    (82.6 %), step = 14.92 ps    (74.6 m%)
SOAC: I0.MND.soac_m1       modn V(B,PSUB): LEAVING@  0.0162439us ;
    tran: time = 17.51 ns    (87.5 %), step = 24.9 ps      (125 m%)
    tran: time = 18.52 ns    (92.6 %), step = 27.32 ps     (137 m%)
SOAC: I0.MND.soac_m1       modn V(B,PSUB): ENTERING@ 0.019425us duration:0.00318us ;
    tran: time = 19.52 ns    (97.6 %), step = 22.68 ps     (113 m%)
Number of accepted tran steps =             2619

Maximum value achieved for any signal of each quantity: 
V: V(I0.net1) = 3.628 V
I: I(V:p) = 326 uA

~~~~~~~~~~~~~~~~~~~~~~~~~~~~~~~~~
Post-Transient Simulation Summary
~~~~~~~~~~~~~~~~~~~~~~~~~~~~~~~~~
   -   To further speed up simulation, consider
          add ++aps on command line
   -   Non-default settings that could significantly slow down simulation
          errpreset = conservative, default moderate
          reltol = 10e-06, default 100e-06 (conservative)
~~~~~~~~~~~~~~~~~~~~~~~~~~~~~~~~~


During simulation, the CPU load for active processors is :
         0 (6.5 %)       1 (5.7 %)       2 (13.5 %)      3 (7.1 %)
         4 (11.0 %)      5 (28.8 %)      6 (4.3 %)       7 (8.9 %)
         8 (7.8 %)       9 (4.6 %)      10 (3.6 %)      11 (34.8 %)
        Total: 136.7%
Initial condition solution time: CPU = 385 us, elapsed = 709.057 us.
Intrinsic tran analysis time:    CPU = 283.756 ms, elapsed = 297.146 ms.
Total time required for tran analysis `tran': CPU = 285.276 ms, elapsed = 305.366 ms, util. = 93.4%.
Time accumulated: CPU = 2.10724 s, elapsed = 2.84089 s.
Peak resident memory used = 198 Mbytes.

finalTimeOP: writing operating point information to rawfile.

Opening the PSF file ../psf/mc1_separate/006/finalTimeOP.info ...
modelParameter: writing model parameter values to rawfile.

Opening the PSF file ../psf/mc1_separate/006/modelParameter.info ...
element: writing instance parameter values to rawfile.

Opening the PSF file ../psf/mc1_separate/006/element.info ...
outputParameter: writing output parameter values to rawfile.

Opening the PSF file ../psf/mc1_separate/006/outputParameter.info ...
designParamVals: writing netlist parameters to rawfile.

Opening the PSFASCII file ../psf/mc1_separate/006/designParamVals.info ...
primitives: writing primitives to rawfile.

Opening the PSFASCII file ../psf/mc1_separate/006/primitives.info.primitives ...
subckts: writing subcircuits to rawfile.

Opening the PSFASCII file ../psf/mc1_separate/006/subckts.info.subckts ...
    mc1: iteration = 6           (2.51 %), step = 1            (503 m%)
7              3.02% 

************************************************
Transient Analysis `tran': time = (0 s -> 20 ns)
************************************************

Opening the PSF file ../psf/mc1_separate/007/tran.tran.tran ...

Notice from spectre during IC analysis, during transient analysis `tran', during Monte Carlo analysis `mc1'.
    GminDC = 1 pS is large enough to noticeably affect the DC solution.
        dV(I0.net2) = 62.8848 mV
        Use the `gmin_check' option to eliminate or expand this report.
Warning from spectre during check, during IC analysis, during transient analysis `tran', during Monte Carlo analysis `mc1'.
    WARNING (CMI-2943): Parameter checks have been ignored because the valid value for parameter 'trise' could not be found in 'C0'.

DC simulation time: CPU = 611 us, elapsed = 611.067 us.
Important parameter values:
    start = 0 s
    outputstart = 0 s
    stop = 20 ns
    step = 20 ps
    maxstep = 200 ps
    ic = all
    useprevic = no
    skipdc = no
    reltol = 10e-06
    abstol(V) = 1 uV
    abstol(I) = 1 pA
    temp = 27 C
    tnom = 27 C
    tempeffects = all
    errpreset = conservative
    method = gear2only
    lteratio = 10
    relref = alllocal
    cmin = 0 F
    gmin = 1 pS
    rabsshort = 1 mOhm


Notice from spectre during transient analysis `tran', during Monte Carlo analysis `mc1'.
    Multithreading is disabled due to the size of the design being too small.


Output and IC/nodeset summary:
                 save   5       (current)
                 save   17      (voltage)

    tran: time = 525.5 ps    (2.63 %), step = 28.93 ps     (145 m%)
    tran: time = 1.518 ns    (7.59 %), step = 37.77 ps     (189 m%)
    tran: time = 2.513 ns    (12.6 %), step = 28.77 ps     (144 m%)
    tran: time = 3.532 ns    (17.7 %), step = 41.65 ps     (208 m%)
    tran: time = 4.504 ns    (22.5 %), step = 20.65 ps     (103 m%)
    tran: time = 5.511 ns    (27.6 %), step = 18.99 ps      (95 m%)
SOAC: I0.MND.soac_m1       modn V(B,PSUB): LEAVING@  0.00500272us ;
SOAC: I0.MNA.soac_m1       modn V(B,PSUB): LEAVING@  0.00500732us ;
SOAC: I0.MNA.soac_m1       modn V(B,PSUB): ENTERING@ 0.00618968us duration:0.00118us ;
SOAC: I0.MND.soac_m1       modn V(B,PSUB): ENTERING@ 0.00619026us duration:0.00119us ;
    tran: time = 6.515 ns    (32.6 %), step = 18.12 ps    (90.6 m%)
    tran: time = 7.51 ns     (37.6 %), step = 26.42 ps     (132 m%)
    tran: time = 8.509 ns    (42.5 %), step = 17.21 ps      (86 m%)
    tran: time = 9.515 ns    (47.6 %), step = 20.86 ps     (104 m%)
SOAC: I0.MND.soac_m1       modn V(B,PSUB): LEAVING@  0.00900268us ;
SOAC: I0.MNA.soac_m1       modn V(B,PSUB): LEAVING@  0.00900732us ;
SOAC: I0.MNA.soac_m1       modn V(B,PSUB): ENTERING@ 0.0101657us duration:0.00116us ;
SOAC: I0.MND.soac_m1       modn V(B,PSUB): ENTERING@ 0.0101831us duration:0.00118us ;
    tran: time = 10.5 ns     (52.5 %), step = 13.15 ps    (65.7 m%)
SOAC: I0.MND.soac_m1       modn V(B,PSUB): LEAVING@  0.0102674us ;
SOAC: I0.MND.soac_m1       modn V(B,PSUB): ENTERING@ 0.0114158us duration:0.00115us ;
    tran: time = 11.51 ns    (57.6 %), step = 21.7 ps      (108 m%)
    tran: time = 12.51 ns    (62.6 %), step = 14.77 ps    (73.9 m%)
SOAC: I0.MND.soac_m1       modn V(B,PSUB): LEAVING@  0.0122439us ;
    tran: time = 13.51 ns    (67.5 %), step = 24.81 ps     (124 m%)
    tran: time = 14.52 ns    (72.6 %), step = 27.35 ps     (137 m%)
SOAC: I0.MND.soac_m1       modn V(B,PSUB): ENTERING@ 0.015425us duration:0.00318us ;
    tran: time = 15.52 ns    (77.6 %), step = 22.69 ps     (113 m%)
    tran: time = 16.51 ns    (82.6 %), step = 14.92 ps    (74.6 m%)
SOAC: I0.MND.soac_m1       modn V(B,PSUB): LEAVING@  0.0162439us ;
    tran: time = 17.51 ns    (87.5 %), step = 24.9 ps      (125 m%)
    tran: time = 18.52 ns    (92.6 %), step = 27.32 ps     (137 m%)
SOAC: I0.MND.soac_m1       modn V(B,PSUB): ENTERING@ 0.019425us duration:0.00318us ;
    tran: time = 19.52 ns    (97.6 %), step = 22.68 ps     (113 m%)
Number of accepted tran steps =             2619

Maximum value achieved for any signal of each quantity: 
V: V(I0.net1) = 3.628 V
I: I(V:p) = 326 uA

~~~~~~~~~~~~~~~~~~~~~~~~~~~~~~~~~
Post-Transient Simulation Summary
~~~~~~~~~~~~~~~~~~~~~~~~~~~~~~~~~
   -   To further speed up simulation, consider
          add ++aps on command line
   -   Non-default settings that could significantly slow down simulation
          errpreset = conservative, default moderate
          reltol = 10e-06, default 100e-06 (conservative)
~~~~~~~~~~~~~~~~~~~~~~~~~~~~~~~~~


During simulation, the CPU load for active processors is :
         0 (6.4 %)       1 (5.8 %)       2 (12.7 %)      3 (12.7 %)
         4 (19.3 %)      5 (27.0 %)      6 (5.1 %)       7 (8.6 %)
         8 (7.6 %)       9 (5.4 %)      10 (4.8 %)      11 (32.5 %)
        Total: 147.8%
Initial condition solution time: CPU = 639 us, elapsed = 640.869 us.
Intrinsic tran analysis time:    CPU = 280.74 ms, elapsed = 287.932 ms.
Total time required for tran analysis `tran': CPU = 282.743 ms, elapsed = 296.561 ms, util. = 95.3%.
Time accumulated: CPU = 2.41024 s, elapsed = 3.18256 s.
Peak resident memory used = 198 Mbytes.

finalTimeOP: writing operating point information to rawfile.

Opening the PSF file ../psf/mc1_separate/007/finalTimeOP.info ...
modelParameter: writing model parameter values to rawfile.

Opening the PSF file ../psf/mc1_separate/007/modelParameter.info ...
element: writing instance parameter values to rawfile.

Opening the PSF file ../psf/mc1_separate/007/element.info ...
outputParameter: writing output parameter values to rawfile.

Opening the PSF file ../psf/mc1_separate/007/outputParameter.info ...
designParamVals: writing netlist parameters to rawfile.

Opening the PSFASCII file ../psf/mc1_separate/007/designParamVals.info ...
primitives: writing primitives to rawfile.

Opening the PSFASCII file ../psf/mc1_separate/007/primitives.info.primitives ...
subckts: writing subcircuits to rawfile.

Opening the PSFASCII file ../psf/mc1_separate/007/subckts.info.subckts ...
    mc1: iteration = 7           (3.02 %), step = 1            (503 m%)
8              3.52% 

************************************************
Transient Analysis `tran': time = (0 s -> 20 ns)
************************************************

Opening the PSF file ../psf/mc1_separate/008/tran.tran.tran ...

Notice from spectre during IC analysis, during transient analysis `tran', during Monte Carlo analysis `mc1'.
    GminDC = 1 pS is large enough to noticeably affect the DC solution.
        dV(I0.net2) = 62.8848 mV
        Use the `gmin_check' option to eliminate or expand this report.
Warning from spectre during check, during IC analysis, during transient analysis `tran', during Monte Carlo analysis `mc1'.
    WARNING (CMI-2943): Parameter checks have been ignored because the valid value for parameter 'trise' could not be found in 'C0'.

DC simulation time: CPU = 392 us, elapsed = 394.821 us.
Important parameter values:
    start = 0 s
    outputstart = 0 s
    stop = 20 ns
    step = 20 ps
    maxstep = 200 ps
    ic = all
    useprevic = no
    skipdc = no
    reltol = 10e-06
    abstol(V) = 1 uV
    abstol(I) = 1 pA
    temp = 27 C
    tnom = 27 C
    tempeffects = all
    errpreset = conservative
    method = gear2only
    lteratio = 10
    relref = alllocal
    cmin = 0 F
    gmin = 1 pS
    rabsshort = 1 mOhm


Notice from spectre during transient analysis `tran', during Monte Carlo analysis `mc1'.
    Multithreading is disabled due to the size of the design being too small.


Output and IC/nodeset summary:
                 save   5       (current)
                 save   17      (voltage)

    tran: time = 525.5 ps    (2.63 %), step = 28.93 ps     (145 m%)
    tran: time = 1.518 ns    (7.59 %), step = 37.77 ps     (189 m%)
    tran: time = 2.513 ns    (12.6 %), step = 28.77 ps     (144 m%)
    tran: time = 3.532 ns    (17.7 %), step = 41.65 ps     (208 m%)
    tran: time = 4.504 ns    (22.5 %), step = 20.65 ps     (103 m%)
    tran: time = 5.511 ns    (27.6 %), step = 18.99 ps      (95 m%)
SOAC: I0.MND.soac_m1       modn V(B,PSUB): LEAVING@  0.00500272us ;
SOAC: I0.MNA.soac_m1       modn V(B,PSUB): LEAVING@  0.00500732us ;
SOAC: I0.MNA.soac_m1       modn V(B,PSUB): ENTERING@ 0.00618968us duration:0.00118us ;
SOAC: I0.MND.soac_m1       modn V(B,PSUB): ENTERING@ 0.00619026us duration:0.00119us ;
    tran: time = 6.515 ns    (32.6 %), step = 18.12 ps    (90.6 m%)
    tran: time = 7.51 ns     (37.6 %), step = 26.42 ps     (132 m%)
    tran: time = 8.509 ns    (42.5 %), step = 17.21 ps      (86 m%)
    tran: time = 9.515 ns    (47.6 %), step = 20.86 ps     (104 m%)
SOAC: I0.MND.soac_m1       modn V(B,PSUB): LEAVING@  0.00900268us ;
SOAC: I0.MNA.soac_m1       modn V(B,PSUB): LEAVING@  0.00900732us ;
SOAC: I0.MNA.soac_m1       modn V(B,PSUB): ENTERING@ 0.0101657us duration:0.00116us ;
SOAC: I0.MND.soac_m1       modn V(B,PSUB): ENTERING@ 0.0101831us duration:0.00118us ;
    tran: time = 10.5 ns     (52.5 %), step = 13.15 ps    (65.7 m%)
SOAC: I0.MND.soac_m1       modn V(B,PSUB): LEAVING@  0.0102674us ;
SOAC: I0.MND.soac_m1       modn V(B,PSUB): ENTERING@ 0.0114158us duration:0.00115us ;
    tran: time = 11.51 ns    (57.6 %), step = 21.7 ps      (108 m%)
    tran: time = 12.51 ns    (62.6 %), step = 14.77 ps    (73.9 m%)
SOAC: I0.MND.soac_m1       modn V(B,PSUB): LEAVING@  0.0122439us ;
    tran: time = 13.51 ns    (67.5 %), step = 24.81 ps     (124 m%)
    tran: time = 14.52 ns    (72.6 %), step = 27.35 ps     (137 m%)
SOAC: I0.MND.soac_m1       modn V(B,PSUB): ENTERING@ 0.015425us duration:0.00318us ;
    tran: time = 15.52 ns    (77.6 %), step = 22.69 ps     (113 m%)
    tran: time = 16.51 ns    (82.6 %), step = 14.92 ps    (74.6 m%)
SOAC: I0.MND.soac_m1       modn V(B,PSUB): LEAVING@  0.0162439us ;
    tran: time = 17.51 ns    (87.5 %), step = 24.9 ps      (125 m%)
    tran: time = 18.52 ns    (92.6 %), step = 27.32 ps     (137 m%)
SOAC: I0.MND.soac_m1       modn V(B,PSUB): ENTERING@ 0.019425us duration:0.00318us ;
    tran: time = 19.52 ns    (97.6 %), step = 22.68 ps     (113 m%)
Number of accepted tran steps =             2619

Maximum value achieved for any signal of each quantity: 
V: V(I0.net1) = 3.628 V
I: I(V:p) = 326 uA

~~~~~~~~~~~~~~~~~~~~~~~~~~~~~~~~~
Post-Transient Simulation Summary
~~~~~~~~~~~~~~~~~~~~~~~~~~~~~~~~~
   -   To further speed up simulation, consider
          add ++aps on command line
   -   Non-default settings that could significantly slow down simulation
          errpreset = conservative, default moderate
          reltol = 10e-06, default 100e-06 (conservative)
~~~~~~~~~~~~~~~~~~~~~~~~~~~~~~~~~


During simulation, the CPU load for active processors is :
         0 (6.4 %)       1 (6.9 %)       2 (11.5 %)      3 (13.2 %)
         4 (17.8 %)      5 (31.9 %)      6 (4.6 %)       7 (10.0 %)
         8 (7.5 %)       9 (5.5 %)      10 (4.9 %)      11 (30.5 %)
        Total: 150.7%
Initial condition solution time: CPU = 410 us, elapsed = 412.941 us.
Intrinsic tran analysis time:    CPU = 267.132 ms, elapsed = 275.906 ms.
Total time required for tran analysis `tran': CPU = 268.725 ms, elapsed = 284.874 ms, util. = 94.3%.
Time accumulated: CPU = 2.69432 s, elapsed = 3.50943 s.
Peak resident memory used = 198 Mbytes.

finalTimeOP: writing operating point information to rawfile.

Opening the PSF file ../psf/mc1_separate/008/finalTimeOP.info ...
modelParameter: writing model parameter values to rawfile.

Opening the PSF file ../psf/mc1_separate/008/modelParameter.info ...
element: writing instance parameter values to rawfile.

Opening the PSF file ../psf/mc1_separate/008/element.info ...
outputParameter: writing output parameter values to rawfile.

Opening the PSF file ../psf/mc1_separate/008/outputParameter.info ...
designParamVals: writing netlist parameters to rawfile.

Opening the PSFASCII file ../psf/mc1_separate/008/designParamVals.info ...
primitives: writing primitives to rawfile.

Opening the PSFASCII file ../psf/mc1_separate/008/primitives.info.primitives ...
subckts: writing subcircuits to rawfile.

Opening the PSFASCII file ../psf/mc1_separate/008/subckts.info.subckts ...
    mc1: iteration = 8           (3.52 %), step = 1            (503 m%)
9              4.02% 

************************************************
Transient Analysis `tran': time = (0 s -> 20 ns)
************************************************

Opening the PSF file ../psf/mc1_separate/009/tran.tran.tran ...

Notice from spectre during IC analysis, during transient analysis `tran', during Monte Carlo analysis `mc1'.
    GminDC = 1 pS is large enough to noticeably affect the DC solution.
        dV(I0.net2) = 62.8848 mV
        Use the `gmin_check' option to eliminate or expand this report.
Warning from spectre during check, during IC analysis, during transient analysis `tran', during Monte Carlo analysis `mc1'.
    WARNING (CMI-2943): Parameter checks have been ignored because the valid value for parameter 'trise' could not be found in 'C0'.

DC simulation time: CPU = 365 us, elapsed = 369.072 us.
Important parameter values:
    start = 0 s
    outputstart = 0 s
    stop = 20 ns
    step = 20 ps
    maxstep = 200 ps
    ic = all
    useprevic = no
    skipdc = no
    reltol = 10e-06
    abstol(V) = 1 uV
    abstol(I) = 1 pA
    temp = 27 C
    tnom = 27 C
    tempeffects = all
    errpreset = conservative
    method = gear2only
    lteratio = 10
    relref = alllocal
    cmin = 0 F
    gmin = 1 pS
    rabsshort = 1 mOhm


Notice from spectre during transient analysis `tran', during Monte Carlo analysis `mc1'.
    Multithreading is disabled due to the size of the design being too small.


Output and IC/nodeset summary:
                 save   5       (current)
                 save   17      (voltage)

    tran: time = 525.5 ps    (2.63 %), step = 28.93 ps     (145 m%)
    tran: time = 1.518 ns    (7.59 %), step = 37.77 ps     (189 m%)
    tran: time = 2.513 ns    (12.6 %), step = 28.77 ps     (144 m%)
    tran: time = 3.532 ns    (17.7 %), step = 41.65 ps     (208 m%)
    tran: time = 4.504 ns    (22.5 %), step = 20.65 ps     (103 m%)
    tran: time = 5.511 ns    (27.6 %), step = 18.99 ps      (95 m%)
SOAC: I0.MND.soac_m1       modn V(B,PSUB): LEAVING@  0.00500272us ;
SOAC: I0.MNA.soac_m1       modn V(B,PSUB): LEAVING@  0.00500732us ;
SOAC: I0.MNA.soac_m1       modn V(B,PSUB): ENTERING@ 0.00618968us duration:0.00118us ;
SOAC: I0.MND.soac_m1       modn V(B,PSUB): ENTERING@ 0.00619026us duration:0.00119us ;
    tran: time = 6.515 ns    (32.6 %), step = 18.12 ps    (90.6 m%)
    tran: time = 7.51 ns     (37.6 %), step = 26.42 ps     (132 m%)
    tran: time = 8.509 ns    (42.5 %), step = 17.21 ps      (86 m%)
    tran: time = 9.515 ns    (47.6 %), step = 20.86 ps     (104 m%)
SOAC: I0.MND.soac_m1       modn V(B,PSUB): LEAVING@  0.00900268us ;
SOAC: I0.MNA.soac_m1       modn V(B,PSUB): LEAVING@  0.00900732us ;
SOAC: I0.MNA.soac_m1       modn V(B,PSUB): ENTERING@ 0.0101657us duration:0.00116us ;
SOAC: I0.MND.soac_m1       modn V(B,PSUB): ENTERING@ 0.0101831us duration:0.00118us ;
    tran: time = 10.5 ns     (52.5 %), step = 13.15 ps    (65.7 m%)
SOAC: I0.MND.soac_m1       modn V(B,PSUB): LEAVING@  0.0102674us ;
SOAC: I0.MND.soac_m1       modn V(B,PSUB): ENTERING@ 0.0114158us duration:0.00115us ;
    tran: time = 11.51 ns    (57.6 %), step = 21.7 ps      (108 m%)
    tran: time = 12.51 ns    (62.6 %), step = 14.77 ps    (73.9 m%)
SOAC: I0.MND.soac_m1       modn V(B,PSUB): LEAVING@  0.0122439us ;
    tran: time = 13.51 ns    (67.5 %), step = 24.81 ps     (124 m%)
    tran: time = 14.52 ns    (72.6 %), step = 27.35 ps     (137 m%)
SOAC: I0.MND.soac_m1       modn V(B,PSUB): ENTERING@ 0.015425us duration:0.00318us ;
    tran: time = 15.52 ns    (77.6 %), step = 22.69 ps     (113 m%)
    tran: time = 16.51 ns    (82.6 %), step = 14.92 ps    (74.6 m%)
SOAC: I0.MND.soac_m1       modn V(B,PSUB): LEAVING@  0.0162439us ;
    tran: time = 17.51 ns    (87.5 %), step = 24.9 ps      (125 m%)
    tran: time = 18.52 ns    (92.6 %), step = 27.32 ps     (137 m%)
SOAC: I0.MND.soac_m1       modn V(B,PSUB): ENTERING@ 0.019425us duration:0.00318us ;
    tran: time = 19.52 ns    (97.6 %), step = 22.68 ps     (113 m%)
Number of accepted tran steps =             2619

Maximum value achieved for any signal of each quantity: 
V: V(I0.net1) = 3.628 V
I: I(V:p) = 326 uA

~~~~~~~~~~~~~~~~~~~~~~~~~~~~~~~~~
Post-Transient Simulation Summary
~~~~~~~~~~~~~~~~~~~~~~~~~~~~~~~~~
   -   To further speed up simulation, consider
          add ++aps on command line
   -   Non-default settings that could significantly slow down simulation
          errpreset = conservative, default moderate
          reltol = 10e-06, default 100e-06 (conservative)
~~~~~~~~~~~~~~~~~~~~~~~~~~~~~~~~~


During simulation, the CPU load for active processors is :
         0 (5.8 %)       1 (6.3 %)       2 (10.5 %)      3 (12.1 %)
         4 (16.2 %)      5 (36.7 %)      6 (4.5 %)       7 (9.2 %)
         8 (6.8 %)       9 (5.3 %)      10 (4.5 %)      11 (28.1 %)
        Total: 145.9%
Initial condition solution time: CPU = 381 us, elapsed = 386 us.
Intrinsic tran analysis time:    CPU = 273.341 ms, elapsed = 281.56 ms.
Total time required for tran analysis `tran': CPU = 274.763 ms, elapsed = 292.536 ms, util. = 93.9%.
Time accumulated: CPU = 2.98328 s, elapsed = 3.84664 s.
Peak resident memory used = 198 Mbytes.

finalTimeOP: writing operating point information to rawfile.

Opening the PSF file ../psf/mc1_separate/009/finalTimeOP.info ...
modelParameter: writing model parameter values to rawfile.

Opening the PSF file ../psf/mc1_separate/009/modelParameter.info ...
element: writing instance parameter values to rawfile.

Opening the PSF file ../psf/mc1_separate/009/element.info ...
outputParameter: writing output parameter values to rawfile.

Opening the PSF file ../psf/mc1_separate/009/outputParameter.info ...
designParamVals: writing netlist parameters to rawfile.

Opening the PSFASCII file ../psf/mc1_separate/009/designParamVals.info ...
primitives: writing primitives to rawfile.

Opening the PSFASCII file ../psf/mc1_separate/009/primitives.info.primitives ...
subckts: writing subcircuits to rawfile.

Opening the PSFASCII file ../psf/mc1_separate/009/subckts.info.subckts ...
    mc1: iteration = 9           (4.02 %), step = 1            (503 m%)
10             4.52% 

************************************************
Transient Analysis `tran': time = (0 s -> 20 ns)
************************************************

Opening the PSF file ../psf/mc1_separate/010/tran.tran.tran ...

Notice from spectre during IC analysis, during transient analysis `tran', during Monte Carlo analysis `mc1'.
    GminDC = 1 pS is large enough to noticeably affect the DC solution.
        dV(I0.net2) = 62.8848 mV
        Use the `gmin_check' option to eliminate or expand this report.
Warning from spectre during check, during IC analysis, during transient analysis `tran', during Monte Carlo analysis `mc1'.
    WARNING (CMI-2943): Parameter checks have been ignored because the valid value for parameter 'trise' could not be found in 'C0'.

DC simulation time: CPU = 346 us, elapsed = 345.945 us.
Important parameter values:
    start = 0 s
    outputstart = 0 s
    stop = 20 ns
    step = 20 ps
    maxstep = 200 ps
    ic = all
    useprevic = no
    skipdc = no
    reltol = 10e-06
    abstol(V) = 1 uV
    abstol(I) = 1 pA
    temp = 27 C
    tnom = 27 C
    tempeffects = all
    errpreset = conservative
    method = gear2only
    lteratio = 10
    relref = alllocal
    cmin = 0 F
    gmin = 1 pS
    rabsshort = 1 mOhm


Notice from spectre during transient analysis `tran', during Monte Carlo analysis `mc1'.
    Multithreading is disabled due to the size of the design being too small.


Output and IC/nodeset summary:
                 save   5       (current)
                 save   17      (voltage)

    tran: time = 525.5 ps    (2.63 %), step = 28.93 ps     (145 m%)
    tran: time = 1.518 ns    (7.59 %), step = 37.77 ps     (189 m%)
    tran: time = 2.513 ns    (12.6 %), step = 28.77 ps     (144 m%)
    tran: time = 3.532 ns    (17.7 %), step = 41.65 ps     (208 m%)
    tran: time = 4.504 ns    (22.5 %), step = 20.65 ps     (103 m%)
    tran: time = 5.511 ns    (27.6 %), step = 18.99 ps      (95 m%)
SOAC: I0.MND.soac_m1       modn V(B,PSUB): LEAVING@  0.00500272us ;
SOAC: I0.MNA.soac_m1       modn V(B,PSUB): LEAVING@  0.00500732us ;
SOAC: I0.MNA.soac_m1       modn V(B,PSUB): ENTERING@ 0.00618968us duration:0.00118us ;
SOAC: I0.MND.soac_m1       modn V(B,PSUB): ENTERING@ 0.00619026us duration:0.00119us ;
    tran: time = 6.515 ns    (32.6 %), step = 18.12 ps    (90.6 m%)
    tran: time = 7.51 ns     (37.6 %), step = 26.42 ps     (132 m%)
    tran: time = 8.509 ns    (42.5 %), step = 17.21 ps      (86 m%)
    tran: time = 9.515 ns    (47.6 %), step = 20.86 ps     (104 m%)
SOAC: I0.MND.soac_m1       modn V(B,PSUB): LEAVING@  0.00900268us ;
SOAC: I0.MNA.soac_m1       modn V(B,PSUB): LEAVING@  0.00900732us ;
SOAC: I0.MNA.soac_m1       modn V(B,PSUB): ENTERING@ 0.0101657us duration:0.00116us ;
SOAC: I0.MND.soac_m1       modn V(B,PSUB): ENTERING@ 0.0101831us duration:0.00118us ;
    tran: time = 10.5 ns     (52.5 %), step = 13.15 ps    (65.7 m%)
SOAC: I0.MND.soac_m1       modn V(B,PSUB): LEAVING@  0.0102674us ;
SOAC: I0.MND.soac_m1       modn V(B,PSUB): ENTERING@ 0.0114158us duration:0.00115us ;
    tran: time = 11.51 ns    (57.6 %), step = 21.7 ps      (108 m%)
    tran: time = 12.51 ns    (62.6 %), step = 14.77 ps    (73.9 m%)
SOAC: I0.MND.soac_m1       modn V(B,PSUB): LEAVING@  0.0122439us ;
    tran: time = 13.51 ns    (67.5 %), step = 24.81 ps     (124 m%)
    tran: time = 14.52 ns    (72.6 %), step = 27.35 ps     (137 m%)
SOAC: I0.MND.soac_m1       modn V(B,PSUB): ENTERING@ 0.015425us duration:0.00318us ;
    tran: time = 15.52 ns    (77.6 %), step = 22.69 ps     (113 m%)
    tran: time = 16.51 ns    (82.6 %), step = 14.92 ps    (74.6 m%)
SOAC: I0.MND.soac_m1       modn V(B,PSUB): LEAVING@  0.0162439us ;
    tran: time = 17.51 ns    (87.5 %), step = 24.9 ps      (125 m%)
    tran: time = 18.52 ns    (92.6 %), step = 27.32 ps     (137 m%)
SOAC: I0.MND.soac_m1       modn V(B,PSUB): ENTERING@ 0.019425us duration:0.00318us ;
    tran: time = 19.52 ns    (97.6 %), step = 22.68 ps     (113 m%)
Number of accepted tran steps =             2619

Maximum value achieved for any signal of each quantity: 
V: V(I0.net1) = 3.628 V
I: I(V:p) = 326 uA

~~~~~~~~~~~~~~~~~~~~~~~~~~~~~~~~~
Post-Transient Simulation Summary
~~~~~~~~~~~~~~~~~~~~~~~~~~~~~~~~~
   -   To further speed up simulation, consider
          add ++aps on command line
   -   Non-default settings that could significantly slow down simulation
          errpreset = conservative, default moderate
          reltol = 10e-06, default 100e-06 (conservative)
~~~~~~~~~~~~~~~~~~~~~~~~~~~~~~~~~


During simulation, the CPU load for active processors is :
         0 (5.6 %)       1 (5.8 %)       2 (9.9 %)       3 (11.2 %)
         4 (15.0 %)      5 (40.2 %)      6 (4.1 %)       7 (8.5 %)
         8 (6.3 %)       9 (4.9 %)      10 (4.1 %)      11 (26.0 %)
        Total: 141.6%
Initial condition solution time: CPU = 363 us, elapsed = 363.827 us.
Intrinsic tran analysis time:    CPU = 249.551 ms, elapsed = 258.317 ms.
Total time required for tran analysis `tran': CPU = 251.162 ms, elapsed = 269.579 ms, util. = 93.2%.
Time accumulated: CPU = 3.2491 s, elapsed = 4.16148 s.
Peak resident memory used = 198 Mbytes.

finalTimeOP: writing operating point information to rawfile.

Opening the PSF file ../psf/mc1_separate/010/finalTimeOP.info ...
modelParameter: writing model parameter values to rawfile.

Opening the PSF file ../psf/mc1_separate/010/modelParameter.info ...
element: writing instance parameter values to rawfile.

Opening the PSF file ../psf/mc1_separate/010/element.info ...
outputParameter: writing output parameter values to rawfile.

Opening the PSF file ../psf/mc1_separate/010/outputParameter.info ...
designParamVals: writing netlist parameters to rawfile.

Opening the PSFASCII file ../psf/mc1_separate/010/designParamVals.info ...
primitives: writing primitives to rawfile.

Opening the PSFASCII file ../psf/mc1_separate/010/primitives.info.primitives ...
subckts: writing subcircuits to rawfile.

Opening the PSFASCII file ../psf/mc1_separate/010/subckts.info.subckts ...
    mc1: iteration = 10          (4.52 %), step = 1            (503 m%)
11             5.03% 

************************************************
Transient Analysis `tran': time = (0 s -> 20 ns)
************************************************

Opening the PSF file ../psf/mc1_separate/011/tran.tran.tran ...

Notice from spectre during IC analysis, during transient analysis `tran', during Monte Carlo analysis `mc1'.
    GminDC = 1 pS is large enough to noticeably affect the DC solution.
        dV(I0.net2) = 62.8848 mV
        Use the `gmin_check' option to eliminate or expand this report.
Warning from spectre during check, during IC analysis, during transient analysis `tran', during Monte Carlo analysis `mc1'.
    WARNING (CMI-2943): Parameter checks have been ignored because the valid value for parameter 'trise' could not be found in 'C0'.

DC simulation time: CPU = 343 us, elapsed = 347.137 us.
Important parameter values:
    start = 0 s
    outputstart = 0 s
    stop = 20 ns
    step = 20 ps
    maxstep = 200 ps
    ic = all
    useprevic = no
    skipdc = no
    reltol = 10e-06
    abstol(V) = 1 uV
    abstol(I) = 1 pA
    temp = 27 C
[...]
element: writing instance parameter values to rawfile.

Opening the PSF file ../psf/mc1_separate/197/element.info ...
outputParameter: writing output parameter values to rawfile.

Opening the PSF file ../psf/mc1_separate/197/outputParameter.info ...
designParamVals: writing netlist parameters to rawfile.

Opening the PSFASCII file ../psf/mc1_separate/197/designParamVals.info ...
primitives: writing primitives to rawfile.

Opening the PSFASCII file ../psf/mc1_separate/197/primitives.info.primitives ...
subckts: writing subcircuits to rawfile.

Opening the PSFASCII file ../psf/mc1_separate/197/subckts.info.subckts ...
    mc1: iteration = 197         (98.5 %), step = 1            (503 m%)
198           98.99% 

************************************************
Transient Analysis `tran': time = (0 s -> 20 ns)
************************************************

Opening the PSF file ../psf/mc1_separate/198/tran.tran.tran ...

Notice from spectre during IC analysis, during transient analysis `tran', during Monte Carlo analysis `mc1'.
    GminDC = 1 pS is large enough to noticeably affect the DC solution.
        dV(I0.net2) = 62.8848 mV
        Use the `gmin_check' option to eliminate or expand this report.
Warning from spectre during check, during IC analysis, during transient analysis `tran', during Monte Carlo analysis `mc1'.
    WARNING (CMI-2943): Parameter checks have been ignored because the valid value for parameter 'trise' could not be found in 'C0'.

DC simulation time: CPU = 375 us, elapsed = 380.993 us.
Important parameter values:
    start = 0 s
    outputstart = 0 s
    stop = 20 ns
    step = 20 ps
    maxstep = 200 ps
    ic = all
    useprevic = no
    skipdc = no
    reltol = 10e-06
    abstol(V) = 1 uV
    abstol(I) = 1 pA
    temp = 27 C
    tnom = 27 C
    tempeffects = all
    errpreset = conservative
    method = gear2only
    lteratio = 10
    relref = alllocal
    cmin = 0 F
    gmin = 1 pS
    rabsshort = 1 mOhm


Notice from spectre during transient analysis `tran', during Monte Carlo analysis `mc1'.
    Multithreading is disabled due to the size of the design being too small.


Output and IC/nodeset summary:
                 save   5       (current)
                 save   17      (voltage)

    tran: time = 525.5 ps    (2.63 %), step = 28.93 ps     (145 m%)
    tran: time = 1.518 ns    (7.59 %), step = 37.77 ps     (189 m%)
    tran: time = 2.513 ns    (12.6 %), step = 28.77 ps     (144 m%)
    tran: time = 3.532 ns    (17.7 %), step = 41.65 ps     (208 m%)
    tran: time = 4.504 ns    (22.5 %), step = 20.65 ps     (103 m%)
    tran: time = 5.511 ns    (27.6 %), step = 18.99 ps      (95 m%)
SOAC: I0.MND.soac_m1       modn V(B,PSUB): LEAVING@  0.00500272us ;
SOAC: I0.MNA.soac_m1       modn V(B,PSUB): LEAVING@  0.00500732us ;
SOAC: I0.MNA.soac_m1       modn V(B,PSUB): ENTERING@ 0.00618968us duration:0.00118us ;
SOAC: I0.MND.soac_m1       modn V(B,PSUB): ENTERING@ 0.00619026us duration:0.00119us ;
    tran: time = 6.515 ns    (32.6 %), step = 18.12 ps    (90.6 m%)
    tran: time = 7.51 ns     (37.6 %), step = 26.42 ps     (132 m%)
    tran: time = 8.509 ns    (42.5 %), step = 17.21 ps      (86 m%)
    tran: time = 9.515 ns    (47.6 %), step = 20.86 ps     (104 m%)
SOAC: I0.MND.soac_m1       modn V(B,PSUB): LEAVING@  0.00900268us ;
SOAC: I0.MNA.soac_m1       modn V(B,PSUB): LEAVING@  0.00900732us ;
SOAC: I0.MNA.soac_m1       modn V(B,PSUB): ENTERING@ 0.0101657us duration:0.00116us ;
SOAC: I0.MND.soac_m1       modn V(B,PSUB): ENTERING@ 0.0101831us duration:0.00118us ;
    tran: time = 10.5 ns     (52.5 %), step = 13.15 ps    (65.7 m%)
SOAC: I0.MND.soac_m1       modn V(B,PSUB): LEAVING@  0.0102674us ;
SOAC: I0.MND.soac_m1       modn V(B,PSUB): ENTERING@ 0.0114158us duration:0.00115us ;
    tran: time = 11.51 ns    (57.6 %), step = 21.7 ps      (108 m%)
    tran: time = 12.51 ns    (62.6 %), step = 14.77 ps    (73.9 m%)
SOAC: I0.MND.soac_m1       modn V(B,PSUB): LEAVING@  0.0122439us ;
    tran: time = 13.51 ns    (67.5 %), step = 24.81 ps     (124 m%)
    tran: time = 14.52 ns    (72.6 %), step = 27.35 ps     (137 m%)
SOAC: I0.MND.soac_m1       modn V(B,PSUB): ENTERING@ 0.015425us duration:0.00318us ;
    tran: time = 15.52 ns    (77.6 %), step = 22.69 ps     (113 m%)
    tran: time = 16.51 ns    (82.6 %), step = 14.92 ps    (74.6 m%)
SOAC: I0.MND.soac_m1       modn V(B,PSUB): LEAVING@  0.0162439us ;
    tran: time = 17.51 ns    (87.5 %), step = 24.9 ps      (125 m%)
    tran: time = 18.52 ns    (92.6 %), step = 27.32 ps     (137 m%)
SOAC: I0.MND.soac_m1       modn V(B,PSUB): ENTERING@ 0.019425us duration:0.00318us ;
    tran: time = 19.52 ns    (97.6 %), step = 22.68 ps     (113 m%)
Number of accepted tran steps =             2619

Maximum value achieved for any signal of each quantity: 
V: V(I0.net1) = 3.628 V
I: I(V:p) = 326 uA

~~~~~~~~~~~~~~~~~~~~~~~~~~~~~~~~~
Post-Transient Simulation Summary
~~~~~~~~~~~~~~~~~~~~~~~~~~~~~~~~~
   -   To further speed up simulation, consider
          add ++aps on command line
   -   Non-default settings that could significantly slow down simulation
          errpreset = conservative, default moderate
          reltol = 10e-06, default 100e-06 (conservative)
~~~~~~~~~~~~~~~~~~~~~~~~~~~~~~~~~


During simulation, the CPU load for active processors is :
         0 (11.4 %)      1 (8.3 %)       2 (26.2 %)      3 (11.4 %)
         4 (24.6 %)      5 (11.5 %)      6 (7.2 %)       7 (7.7 %)
         8 (13.4 %)      9 (6.8 %)      10 (12.3 %)     11 (12.8 %)
        Total: 153.7%
Initial condition solution time: CPU = 398 us, elapsed = 402.927 us.
Intrinsic tran analysis time:    CPU = 277.606 ms, elapsed = 284.277 ms.
Total time required for tran analysis `tran': CPU = 279.125 ms, elapsed = 292.512 ms, util. = 95.4%.
Time accumulated: CPU = 53.7017 s, elapsed = 62.5157 s (1m  2.5s).
Peak resident memory used = 201 Mbytes.

finalTimeOP: writing operating point information to rawfile.

Opening the PSF file ../psf/mc1_separate/198/finalTimeOP.info ...
modelParameter: writing model parameter values to rawfile.

Opening the PSF file ../psf/mc1_separate/198/modelParameter.info ...
element: writing instance parameter values to rawfile.

Opening the PSF file ../psf/mc1_separate/198/element.info ...
outputParameter: writing output parameter values to rawfile.

Opening the PSF file ../psf/mc1_separate/198/outputParameter.info ...
designParamVals: writing netlist parameters to rawfile.

Opening the PSFASCII file ../psf/mc1_separate/198/designParamVals.info ...
primitives: writing primitives to rawfile.

Opening the PSFASCII file ../psf/mc1_separate/198/primitives.info.primitives ...
subckts: writing subcircuits to rawfile.

Opening the PSFASCII file ../psf/mc1_separate/198/subckts.info.subckts ...
    mc1: iteration = 198           (99 %), step = 1            (503 m%)
199           99.50% 

************************************************
Transient Analysis `tran': time = (0 s -> 20 ns)
************************************************

Opening the PSF file ../psf/mc1_separate/199/tran.tran.tran ...

Notice from spectre during IC analysis, during transient analysis `tran', during Monte Carlo analysis `mc1'.
    GminDC = 1 pS is large enough to noticeably affect the DC solution.
        dV(I0.net2) = 62.8848 mV
        Use the `gmin_check' option to eliminate or expand this report.
Warning from spectre during check, during IC analysis, during transient analysis `tran', during Monte Carlo analysis `mc1'.
    WARNING (CMI-2943): Parameter checks have been ignored because the valid value for parameter 'trise' could not be found in 'C0'.

DC simulation time: CPU = 549 us, elapsed = 550.032 us.
Important parameter values:
    start = 0 s
    outputstart = 0 s
    stop = 20 ns
    step = 20 ps
    maxstep = 200 ps
    ic = all
    useprevic = no
    skipdc = no
    reltol = 10e-06
    abstol(V) = 1 uV
    abstol(I) = 1 pA
    temp = 27 C
    tnom = 27 C
    tempeffects = all
    errpreset = conservative
    method = gear2only
    lteratio = 10
    relref = alllocal
    cmin = 0 F
    gmin = 1 pS
    rabsshort = 1 mOhm


Notice from spectre during transient analysis `tran', during Monte Carlo analysis `mc1'.
    Multithreading is disabled due to the size of the design being too small.


Output and IC/nodeset summary:
                 save   5       (current)
                 save   17      (voltage)

    tran: time = 525.5 ps    (2.63 %), step = 28.93 ps     (145 m%)
    tran: time = 1.518 ns    (7.59 %), step = 37.77 ps     (189 m%)
    tran: time = 2.513 ns    (12.6 %), step = 28.77 ps     (144 m%)
    tran: time = 3.532 ns    (17.7 %), step = 41.65 ps     (208 m%)
    tran: time = 4.504 ns    (22.5 %), step = 20.65 ps     (103 m%)
    tran: time = 5.511 ns    (27.6 %), step = 18.99 ps      (95 m%)
SOAC: I0.MND.soac_m1       modn V(B,PSUB): LEAVING@  0.00500272us ;
SOAC: I0.MNA.soac_m1       modn V(B,PSUB): LEAVING@  0.00500732us ;
SOAC: I0.MNA.soac_m1       modn V(B,PSUB): ENTERING@ 0.00618968us duration:0.00118us ;
SOAC: I0.MND.soac_m1       modn V(B,PSUB): ENTERING@ 0.00619026us duration:0.00119us ;
    tran: time = 6.515 ns    (32.6 %), step = 18.12 ps    (90.6 m%)
    tran: time = 7.51 ns     (37.6 %), step = 26.42 ps     (132 m%)
    tran: time = 8.509 ns    (42.5 %), step = 17.21 ps      (86 m%)
    tran: time = 9.515 ns    (47.6 %), step = 20.86 ps     (104 m%)
SOAC: I0.MND.soac_m1       modn V(B,PSUB): LEAVING@  0.00900268us ;
SOAC: I0.MNA.soac_m1       modn V(B,PSUB): LEAVING@  0.00900732us ;
SOAC: I0.MNA.soac_m1       modn V(B,PSUB): ENTERING@ 0.0101657us duration:0.00116us ;
SOAC: I0.MND.soac_m1       modn V(B,PSUB): ENTERING@ 0.0101831us duration:0.00118us ;
    tran: time = 10.5 ns     (52.5 %), step = 13.15 ps    (65.7 m%)
SOAC: I0.MND.soac_m1       modn V(B,PSUB): LEAVING@  0.0102674us ;
SOAC: I0.MND.soac_m1       modn V(B,PSUB): ENTERING@ 0.0114158us duration:0.00115us ;
    tran: time = 11.51 ns    (57.6 %), step = 21.7 ps      (108 m%)
    tran: time = 12.51 ns    (62.6 %), step = 14.77 ps    (73.9 m%)
SOAC: I0.MND.soac_m1       modn V(B,PSUB): LEAVING@  0.0122439us ;
    tran: time = 13.51 ns    (67.5 %), step = 24.81 ps     (124 m%)
    tran: time = 14.52 ns    (72.6 %), step = 27.35 ps     (137 m%)
SOAC: I0.MND.soac_m1       modn V(B,PSUB): ENTERING@ 0.015425us duration:0.00318us ;
    tran: time = 15.52 ns    (77.6 %), step = 22.69 ps     (113 m%)
    tran: time = 16.51 ns    (82.6 %), step = 14.92 ps    (74.6 m%)
SOAC: I0.MND.soac_m1       modn V(B,PSUB): LEAVING@  0.0162439us ;
    tran: time = 17.51 ns    (87.5 %), step = 24.9 ps      (125 m%)
    tran: time = 18.52 ns    (92.6 %), step = 27.32 ps     (137 m%)
SOAC: I0.MND.soac_m1       modn V(B,PSUB): ENTERING@ 0.019425us duration:0.00318us ;
    tran: time = 19.52 ns    (97.6 %), step = 22.68 ps     (113 m%)
Number of accepted tran steps =             2619

Maximum value achieved for any signal of each quantity: 
V: V(I0.net1) = 3.628 V
I: I(V:p) = 326 uA

~~~~~~~~~~~~~~~~~~~~~~~~~~~~~~~~~
Post-Transient Simulation Summary
~~~~~~~~~~~~~~~~~~~~~~~~~~~~~~~~~
   -   To further speed up simulation, consider
          add ++aps on command line
   -   Non-default settings that could significantly slow down simulation
          errpreset = conservative, default moderate
          reltol = 10e-06, default 100e-06 (conservative)
~~~~~~~~~~~~~~~~~~~~~~~~~~~~~~~~~


During simulation, the CPU load for active processors is :
         0 (11.3 %)      1 (8.3 %)       2 (26.1 %)      3 (11.3 %)
         4 (24.5 %)      5 (11.5 %)      6 (7.2 %)       7 (7.7 %)
         8 (13.4 %)      9 (6.8 %)      10 (12.3 %)     11 (13.1 %)
        Total: 153.4%
Initial condition solution time: CPU = 573 us, elapsed = 576.973 us.
Intrinsic tran analysis time:    CPU = 250.151 ms, elapsed = 258.529 ms.
Total time required for tran analysis `tran': CPU = 251.938 ms, elapsed = 268.116 ms, util. = 94%.
Time accumulated: CPU = 53.9704 s, elapsed = 62.8298 s (1m  2.8s).
Peak resident memory used = 201 Mbytes.

finalTimeOP: writing operating point information to rawfile.

Opening the PSF file ../psf/mc1_separate/199/finalTimeOP.info ...
modelParameter: writing model parameter values to rawfile.

Opening the PSF file ../psf/mc1_separate/199/modelParameter.info ...
element: writing instance parameter values to rawfile.

Opening the PSF file ../psf/mc1_separate/199/element.info ...
outputParameter: writing output parameter values to rawfile.

Opening the PSF file ../psf/mc1_separate/199/outputParameter.info ...
designParamVals: writing netlist parameters to rawfile.

Opening the PSFASCII file ../psf/mc1_separate/199/designParamVals.info ...
primitives: writing primitives to rawfile.

Opening the PSFASCII file ../psf/mc1_separate/199/primitives.info.primitives ...
subckts: writing subcircuits to rawfile.

Opening the PSFASCII file ../psf/mc1_separate/199/subckts.info.subckts ...
    mc1: iteration = 199         (99.5 %), step = 1            (503 m%)
200          100.00% 

************************************************
Transient Analysis `tran': time = (0 s -> 20 ns)
************************************************

Opening the PSF file ../psf/mc1_separate/200/tran.tran.tran ...

Notice from spectre during IC analysis, during transient analysis `tran', during Monte Carlo analysis `mc1'.
    GminDC = 1 pS is large enough to noticeably affect the DC solution.
        dV(I0.net2) = 62.8848 mV
        Use the `gmin_check' option to eliminate or expand this report.
Warning from spectre during check, during IC analysis, during transient analysis `tran', during Monte Carlo analysis `mc1'.
    WARNING (CMI-2943): Parameter checks have been ignored because the valid value for parameter 'trise' could not be found in 'C0'.

DC simulation time: CPU = 390 us, elapsed = 393.867 us.
Important parameter values:
    start = 0 s
    outputstart = 0 s
    stop = 20 ns
    step = 20 ps
    maxstep = 200 ps
    ic = all
    useprevic = no
    skipdc = no
    reltol = 10e-06
    abstol(V) = 1 uV
    abstol(I) = 1 pA
    temp = 27 C
    tnom = 27 C
    tempeffects = all
    errpreset = conservative
    method = gear2only
    lteratio = 10
    relref = alllocal
    cmin = 0 F
    gmin = 1 pS
    rabsshort = 1 mOhm


Notice from spectre during transient analysis `tran', during Monte Carlo analysis `mc1'.
    Multithreading is disabled due to the size of the design being too small.


Output and IC/nodeset summary:
                 save   5       (current)
                 save   17      (voltage)

    tran: time = 525.5 ps    (2.63 %), step = 28.93 ps     (145 m%)
    tran: time = 1.518 ns    (7.59 %), step = 37.77 ps     (189 m%)
    tran: time = 2.513 ns    (12.6 %), step = 28.77 ps     (144 m%)
    tran: time = 3.532 ns    (17.7 %), step = 41.65 ps     (208 m%)
    tran: time = 4.504 ns    (22.5 %), step = 20.65 ps     (103 m%)
    tran: time = 5.511 ns    (27.6 %), step = 18.99 ps      (95 m%)
SOAC: I0.MND.soac_m1       modn V(B,PSUB): LEAVING@  0.00500272us ;
SOAC: I0.MNA.soac_m1       modn V(B,PSUB): LEAVING@  0.00500732us ;
SOAC: I0.MNA.soac_m1       modn V(B,PSUB): ENTERING@ 0.00618968us duration:0.00118us ;
SOAC: I0.MND.soac_m1       modn V(B,PSUB): ENTERING@ 0.00619026us duration:0.00119us ;
    tran: time = 6.515 ns    (32.6 %), step = 18.12 ps    (90.6 m%)
    tran: time = 7.51 ns     (37.6 %), step = 26.42 ps     (132 m%)
    tran: time = 8.509 ns    (42.5 %), step = 17.21 ps      (86 m%)
    tran: time = 9.515 ns    (47.6 %), step = 20.86 ps     (104 m%)
SOAC: I0.MND.soac_m1       modn V(B,PSUB): LEAVING@  0.00900268us ;
SOAC: I0.MNA.soac_m1       modn V(B,PSUB): LEAVING@  0.00900732us ;
SOAC: I0.MNA.soac_m1       modn V(B,PSUB): ENTERING@ 0.0101657us duration:0.00116us ;
SOAC: I0.MND.soac_m1       modn V(B,PSUB): ENTERING@ 0.0101831us duration:0.00118us ;
    tran: time = 10.5 ns     (52.5 %), step = 13.15 ps    (65.7 m%)
SOAC: I0.MND.soac_m1       modn V(B,PSUB): LEAVING@  0.0102674us ;
SOAC: I0.MND.soac_m1       modn V(B,PSUB): ENTERING@ 0.0114158us duration:0.00115us ;
    tran: time = 11.51 ns    (57.6 %), step = 21.7 ps      (108 m%)
    tran: time = 12.51 ns    (62.6 %), step = 14.77 ps    (73.9 m%)
SOAC: I0.MND.soac_m1       modn V(B,PSUB): LEAVING@  0.0122439us ;
    tran: time = 13.51 ns    (67.5 %), step = 24.81 ps     (124 m%)
    tran: time = 14.52 ns    (72.6 %), step = 27.35 ps     (137 m%)
SOAC: I0.MND.soac_m1       modn V(B,PSUB): ENTERING@ 0.015425us duration:0.00318us ;
    tran: time = 15.52 ns    (77.6 %), step = 22.69 ps     (113 m%)
    tran: time = 16.51 ns    (82.6 %), step = 14.92 ps    (74.6 m%)
SOAC: I0.MND.soac_m1       modn V(B,PSUB): LEAVING@  0.0162439us ;
    tran: time = 17.51 ns    (87.5 %), step = 24.9 ps      (125 m%)
    tran: time = 18.52 ns    (92.6 %), step = 27.32 ps     (137 m%)
SOAC: I0.MND.soac_m1       modn V(B,PSUB): ENTERING@ 0.019425us duration:0.00318us ;
    tran: time = 19.52 ns    (97.6 %), step = 22.68 ps     (113 m%)
Number of accepted tran steps =             2619

Maximum value achieved for any signal of each quantity: 
V: V(I0.net1) = 3.628 V
I: I(V:p) = 326 uA

~~~~~~~~~~~~~~~~~~~~~~~~~~~~~~~~~
Post-Transient Simulation Summary
~~~~~~~~~~~~~~~~~~~~~~~~~~~~~~~~~
   -   To further speed up simulation, consider
          add ++aps on command line
   -   Non-default settings that could significantly slow down simulation
          errpreset = conservative, default moderate
          reltol = 10e-06, default 100e-06 (conservative)
~~~~~~~~~~~~~~~~~~~~~~~~~~~~~~~~~


During simulation, the CPU load for active processors is :
         0 (11.3 %)      1 (8.3 %)       2 (25.9 %)      3 (11.3 %)
         4 (24.3 %)      5 (11.5 %)      6 (7.2 %)       7 (7.7 %)
         8 (13.3 %)      9 (6.7 %)      10 (12.2 %)     11 (13.5 %)
        Total: 153.2%
Initial condition solution time: CPU = 409 us, elapsed = 412.941 us.
Intrinsic tran analysis time:    CPU = 258.044 ms, elapsed = 270.289 ms.
Total time required for tran analysis `tran': CPU = 259.601 ms, elapsed = 279.376 ms, util. = 92.9%.
Time accumulated: CPU = 54.2442 s, elapsed = 63.1511 s (1m  3.2s).
Peak resident memory used = 201 Mbytes.

finalTimeOP: writing operating point information to rawfile.

Opening the PSF file ../psf/mc1_separate/200/finalTimeOP.info ...
modelParameter: writing model parameter values to rawfile.

Opening the PSF file ../psf/mc1_separate/200/modelParameter.info ...
element: writing instance parameter values to rawfile.

Opening the PSF file ../psf/mc1_separate/200/element.info ...
outputParameter: writing output parameter values to rawfile.

Opening the PSF file ../psf/mc1_separate/200/outputParameter.info ...
designParamVals: writing netlist parameters to rawfile.

Opening the PSFASCII file ../psf/mc1_separate/200/designParamVals.info ...
primitives: writing primitives to rawfile.

Opening the PSFASCII file ../psf/mc1_separate/200/primitives.info.primitives ...
subckts: writing subcircuits to rawfile.

Opening the PSFASCII file ../psf/mc1_separate/200/subckts.info.subckts ...
    mc1: iteration = 200          (100 %), step = 1            (503 m%)
Total time required for montecarlo analysis `mc1': CPU = 54.0999 s, elapsed = 62.6302 s (1m  2.6s), util. = 86.4%.
Time accumulated: CPU = 54.2553 s, elapsed = 63.189 s (1m  3.2s).
Peak resident memory used = 201 Mbytes.

Licensing Information:
Lic Summary:
[22:19:17.190120] Cdslmd servers:5280@ls-dc2-fen-p1.services.bris.ac.uk:5280@ls-dc2-fen-p0.services.bris.ac.uk
[22:19:17.190137] Feature usage summary:
[22:19:17.190138] Virtuoso_Multi_mode_Simulation


Aggregate audit (10:19:17 PM, Sat Apr 20, 2024):
Time used: CPU = 54.3 s, elapsed = 63.2 s (1m  3.2s), util. = 85.9%.
Time spent in licensing: elapsed = 162 ms.
Peak memory used = 203 Mbytes.
Simulation started at: 10:18:14 PM, Sat Apr 20, 2024, ended at: 10:19:17 PM, Sat Apr 20, 2024, with elapsed time (wall clock): 63.2 s (1m  3.2s).
spectre completes with 0 errors, 217 warnings, and 410 notices.
