
Spectre (R) Circuit Simulator
Version 21.1.0.751.isr19 64bit -- 22 May 2023
Copyright (C) 1989-2023 Cadence Design Systems, Inc. All rights reserved worldwide. Cadence and Spectre are registered trademarks of Cadence Design Systems, Inc. All others are the property of their respective holders.

Includes RSA BSAFE(R) Cryptographic or Security Protocol Software from RSA Security, Inc.

User: oj23092   Host: it075722.wks.bris.ac.uk   HostID: DE89B487   PID: 1222264
Memory  available: 2.9521 GB  physical: 16.2980 GB
Linux   : Rocky Linux release 8.9 (Green Obsidian)
CPU Type: Intel(R) Core(TM) i7-8700 CPU @ 3.20GHz
        Socket: Processors [Frequency] (Hyperthreaded Processor)
        0:       0 [3200.0] (  6 ),  1 [3200.0] (  7 ),  2 [3200.0] (  8 )
                 3 [2340.8] (  9 ),  4 [3200.0] ( 10 ),  5 [3200.0] ( 11 )
        
System load averages (1min, 5min, 15min) : 12.4 %, 7.3 %, 3.6 %
Hyperthreading is enabled
HPC is enabled


Simulating `input.scs' on it075722.wks.bris.ac.uk at 1:50:33 PM, Fri Mar 8, 2024 (process id: 1222264).
Current working directory: /home/oj23092/VLSI_Design_Lab/Sim/lab2024/tb_invParam/adexl/results/data/Interactive.0/2/lab2024:tb_invParam:1/netlist
Command line:
     \
        /eda/cadence/2022-23/RHELx86/SPECTRE_21.10.751/tools.lnx86/bin/spectre  \
        -64 input.scs +escchars +log ../psf/spectre.out -format psfbin  \
        +rtsf -raw ../psf +aps +mt +lqtimeout 900 -maxw 5 -maxn 5  \
        +param /eda/cadence/ams/4.10/spectre/ams_range.lmts -env ade  \
        -ahdllibdir  \
        /home/oj23092/VLSI_Design_Lab/Sim/lab2024/tb_invParam/adexl/results/data/Interactive.0/sharedData/Job0/ahdl/input.ahdlSimDB  \
        +logstatus

Licensing Information:
[13:50:33.289658] Configured Lic search path (21.01-s002): 5280@ls-dc2-fen-p1.services.bris.ac.uk:5280@ls-dc2-fen-p0.services.bris.ac.uk

Licensing Information:
[13:50:33.479690] Periodic Lic check successful

Loading /eda/cadence/2022-23/RHELx86/SPECTRE_21.10.751/tools.lnx86/cmi/lib/64bit/5.0/libinfineon_sh.so ...
Loading /eda/cadence/2022-23/RHELx86/SPECTRE_21.10.751/tools.lnx86/cmi/lib/64bit/5.0/libphilips_o_sh.so ...
Loading /eda/cadence/2022-23/RHELx86/SPECTRE_21.10.751/tools.lnx86/cmi/lib/64bit/5.0/libphilips_sh.so ...
Loading /eda/cadence/2022-23/RHELx86/SPECTRE_21.10.751/tools.lnx86/cmi/lib/64bit/5.0/libsparam_sh.so ...
Loading /eda/cadence/2022-23/RHELx86/SPECTRE_21.10.751/tools.lnx86/cmi/lib/64bit/5.0/libstmodels_sh.so ...
Reading file:  /home/oj23092/VLSI_Design_Lab/Sim/lab2024/tb_invParam/adexl/results/data/Interactive.0/2/lab2024:tb_invParam:1/netlist/input.scs
Reading file:  /eda/cadence/ams/4.10/spectre/ams_range.lmts

Warning from spectre during read of parameter soft limits file `/eda/cadence/ams/4.10/spectre/ams_range.lmts', during circuit read-in.
    WARNING (SPECTRE-8360): line 1511: `ac' is an undefined primitive device.
    WARNING (SPECTRE-8360): line 1512: `ac' is an undefined primitive device.
    WARNING (SPECTRE-8360): line 1513: `ac' is an undefined primitive device.
    WARNING (SPECTRE-8360): line 1514: `ac' is an undefined primitive device.
    WARNING (SPECTRE-8360): line 1515: `ac' is an undefined primitive device.
        Further occurrences of this warning will be suppressed.

Reading file:  /eda/cadence/2022-23/RHELx86/SPECTRE_21.10.751/tools.lnx86/spectre/etc/configs/spectre.cfg
Reading file:  /eda/cadence/ams/4.10/spectre/c35/soac/soac.scs
Reading file:  /eda/cadence/ams/4.10/spectre/c35/soac/res.scs
Reading file:  /eda/cadence/ams/4.10/spectre/c35/soac/bip.scs
Reading file:  /eda/cadence/ams/4.10/spectre/c35/soac/cap.scs
Reading file:  /eda/cadence/ams/4.10/spectre/c35/soac/esddiode.scs
Reading file:  /eda/cadence/ams/4.10/spectre/c35/soac/ind.scs
Reading file:  /eda/cadence/ams/4.10/spectre/c35/soac/cmos53.scs
Reading file:  /eda/cadence/ams/4.10/spectre/c35/soac/processOption.scs
Reading file:  /eda/cadence/ams/4.10/spectre/c35/soac/process.scs
Reading file:  /eda/cadence/ams/4.10/spectre/c35/soac/soac.va

Warning from spectre during AHDL read-in.
    WARNING (VACOMP-2435): The environment variable CDS_AHDLCMI_ENABLE is no longer supported. Therefore, the simulator will use the default compiled C code flow.

Reading link:  /eda/cadence/2022-23/RHELx86/SPECTRE_21.10.751/tools.lnx86/spectre/etc/ahdl/constants.h
Reading file:  /eda/cadence/2022-23/RHELx86/SPECTRE_21.10.751/tools.lnx86/spectre/etc/ahdl/constants.vams
Reading link:  /eda/cadence/2022-23/RHELx86/SPECTRE_21.10.751/tools.lnx86/spectre/etc/ahdl/discipline.h
Reading file:  /eda/cadence/2022-23/RHELx86/SPECTRE_21.10.751/tools.lnx86/spectre/etc/ahdl/disciplines.vams
Reading file:  /eda/cadence/ams/4.10/spectre/c35/processOption/C35B4C3.scs
Time for NDB Parsing: CPU = 75.317 ms, elapsed = 284.505 ms.
Time accumulated: CPU = 136.919 ms, elapsed = 284.507 ms.
Peak resident memory used = 144 Mbytes.

TCP: opening server port it075722.wks.bris.ac.uk:56795
Existing shared object for module modn_ahdl is up to date.
Installed compiled interface for modn_ahdl.
Existing shared object for module modp_ahdl is up to date.
Installed compiled interface for modp_ahdl.
Time for Elaboration: CPU = 15.497 ms, elapsed = 16.5589 ms.
Time accumulated: CPU = 152.481 ms, elapsed = 301.131 ms.
Peak resident memory used = 152 Mbytes.


Notice from spectre during hierarchy flattening.
    The value 'psf' specified for the 'checklimitdest' option will no longer be supported in future releases. Use 'spectre -h' to see other recommended values for the 'checklimitdest' option.


Time for EDB Visiting: CPU = 1.145 ms, elapsed = 1.38998 ms.
Time accumulated: CPU = 153.693 ms, elapsed = 302.587 ms.
Peak resident memory used = 154 Mbytes.

Loading /eda/cadence/2022-23/RHELx86/SPECTRE_21.10.751/tools.lnx86/mdl/lib/64bit/libSpectreEH_sh.so ...

Warning from spectre during initial setup.
    WARNING (SPECTRE-16460): SOAC_cvarm_vspsub:Specified subcircuit master `cvarm' was not found.
    WARNING (SPECTRE-16462): SOAC_cvarm_vspsub:Error in specification of subcircuit master. Assert is ignored.
    WARNING (SPECTRE-16460): SOAC_cvarm_vbs:Specified subcircuit master `cvarm' was not found.
    WARNING (SPECTRE-16462): SOAC_cvarm_vbs:Error in specification of subcircuit master. Assert is ignored.
    WARNING (SPECTRE-16460): SOAC_cvarm_vgb:Specified subcircuit master `cvarm' was not found.
    WARNING (SPECTRE-16462): SOAC_cvarm_vgb:Error in specification of subcircuit master. Assert is ignored.
    WARNING (SPECTRE-16460): SOAC_cvart_vspsub:Specified subcircuit master `cvart' was not found.
    WARNING (SPECTRE-16462): SOAC_cvart_vspsub:Error in specification of subcircuit master. Assert is ignored.
    WARNING (SPECTRE-16460): SOAC_cvart_vbs:Specified subcircuit master `cvart' was not found.
        Further occurrences of this warning will be suppressed.
    WARNING (SPECTRE-16462): SOAC_cvart_vbs:Error in specification of subcircuit master. Assert is ignored.
        Further occurrences of this warning will be suppressed.
Notice from spectre during initial setup.
    Ignorevaref=yes is ignored since all nodes are connected to Verilog-A modules.
Notice from spectre during topology check.
    Only one connection to the following 2 nodes:
        I0.MN0.psub!
        I0.MP0.psub!
Notice from spectre during initial setup.
    Multithreading is disabled due to the size of the design being too small.


Global user options:
         psfversion = 1.4.0
            vabstol = 1e-06
            iabstol = 1e-12
               temp = 27
           homotopy = 5
              limit = delta
         compatible = spice2
               gmin = 1e-12
             rforce = 1
           maxnotes = 5
           maxwarns = 5
             digits = 5
               cols = 80
             pivrel = 0.001
           sensfile = ../psf/sens.output
     checklimitdest = psf
     enable_pre_ver = yes
      ignorezerovar = yes
               save = allpub
             reltol = 0.0001
               tnom = 27
             scalem = 1
              scale = 1

Scoped user options:

Circuit inventory:
              nodes 5
            bsim3v3 2     
          capacitor 1     
          modn_ahdl 1     
          modp_ahdl 1     
            vsource 2     

Analysis and control statement inventory:
               info 7     
               tran 1     

Output statements:
             .probe 0     
           .measure 0     
               save 1     

Design checks inventory:
          paramtest 2     
             assert 175   


Notice from spectre during initial setup.
    APS enabled.
    72 warnings suppressed.

Time for parsing: CPU = 5.328 ms, elapsed = 246.448 ms.
Time accumulated: CPU = 159.076 ms, elapsed = 549.089 ms.
Peak resident memory used = 159 Mbytes.

~~~~~~~~~~~~~~~~~~~~~~
Pre-Simulation Summary
~~~~~~~~~~~~~~~~~~~~~~
   -   (APS) Multi-threading. The recommended number of threads is 1, consider adding +mt=1 on command line.
~~~~~~~~~~~~~~~~~~~~~~

Notice from spectre during transient analysis `tran'.
    No checklimit analysis defined for asserts. A default checklimit analysis 'SpectreChecklimitAnal' has been created with all asserts enabled.


************************************************
Transient Analysis `tran': time = (0 s -> 10 ns)
************************************************

Warning from spectre during check, during IC analysis, during transient analysis `tran'.
    WARNING (CMI-2943): Parameter checks have been ignored because the valid value for parameter 'trise' could not be found in 'C0'.

DC simulation time: CPU = 355 us, elapsed = 360.012 us.

Opening the PSF file ../psf/tran.tran.tran ...
Important parameter values:
    start = 0 s
    outputstart = 0 s
    stop = 10 ns
    step = 10 ps
    maxstep = 100 ps
    ic = all
    useprevic = no
    skipdc = no
    reltol = 10e-06
    abstol(V) = 1 uV
    abstol(I) = 1 pA
    temp = 27 C
    tnom = 27 C
    tempeffects = all
    errpreset = conservative
    method = gear2only
    lteratio = 10
    relref = alllocal
    cmin = 0 F
    gmin = 1 pS
    rabsshort = 1 mOhm


Notice from spectre during transient analysis `tran'.
    Multithreading is disabled due to the size of the design being too small.


Output and IC/nodeset summary:
                 save   2       (current)
                 save   5       (voltage)

    tran: time = 254.9 ps    (2.55 %), step = 11.21 ps     (112 m%)
    tran: time = 772.1 ps    (7.72 %), step = 100 ps          (1 %)
    tran: time = 1.253 ns    (12.5 %), step = 5.253 ps    (52.5 m%)
    tran: time = 1.841 ns    (18.4 %), step = 100 ps          (1 %)
    tran: time = 2.258 ns    (22.6 %), step = 11.62 ps     (116 m%)
    tran: time = 2.833 ns    (28.3 %), step = 100 ps          (1 %)
    tran: time = 3.254 ns    (32.5 %), step = 5.223 ps    (52.2 m%)
    tran: time = 3.812 ns    (38.1 %), step = 100 ps          (1 %)
    tran: time = 4.255 ns    (42.6 %), step = 11.27 ps     (113 m%)
    tran: time = 4.816 ns    (48.2 %), step = 100 ps          (1 %)
    tran: time = 5.253 ns    (52.5 %), step = 5.254 ps    (52.5 m%)
    tran: time = 5.84 ns     (58.4 %), step = 100 ps          (1 %)
    tran: time = 6.258 ns    (62.6 %), step = 11.62 ps     (116 m%)
    tran: time = 6.833 ns    (68.3 %), step = 100 ps          (1 %)
    tran: time = 7.254 ns    (72.5 %), step = 5.223 ps    (52.2 m%)
    tran: time = 7.812 ns    (78.1 %), step = 100 ps          (1 %)
    tran: time = 8.255 ns    (82.6 %), step = 11.27 ps     (113 m%)
    tran: time = 8.816 ns    (88.2 %), step = 100 ps          (1 %)
    tran: time = 9.253 ns    (92.5 %), step = 5.254 ps    (52.5 m%)
    tran: time = 9.84 ns     (98.4 %), step = 100 ps          (1 %)
Number of accepted tran steps =             854

Maximum value achieved for any signal of each quantity: 
V: V(net3) = 3.347 V
I: I(V0:p) = 515.3 uA

~~~~~~~~~~~~~~~~~~~~~~~~~~~~~~~~~
Post-Transient Simulation Summary
~~~~~~~~~~~~~~~~~~~~~~~~~~~~~~~~~
   -   To further speed up simulation, consider
          add ++aps on command line
   -   Non-default settings that could significantly slow down simulation
          errpreset = conservative, default moderate
          reltol = 10e-06, default 100e-06 (conservative)
~~~~~~~~~~~~~~~~~~~~~~~~~~~~~~~~~


During simulation, the CPU load for active processors is :
         0 (15.8 %)      1 (3.4 %)       2 (3.5 %)       3 (3.4 %)
         4 (7.0 %)       5 (5.2 %)       6 (12.3 %)      7 (5.2 %)
         8 (3.5 %)       9 (10.2 %)     10 (25.4 %)     11 (8.9 %)
        Total: 103.9%
Initial condition solution time: CPU = 383 us, elapsed = 389.814 us.
Intrinsic tran analysis time:    CPU = 48.276 ms, elapsed = 50.7159 ms.
Total time required for tran analysis `tran': CPU = 87.637 ms, elapsed = 108.404 ms, util. = 80.8%.
Time accumulated: CPU = 251.544 ms, elapsed = 664.313 ms.
Peak resident memory used = 167 Mbytes.

finalTimeOP: writing operating point information to rawfile.

Opening the PSF file ../psf/finalTimeOP.info ...
modelParameter: writing model parameter values to rawfile.

Opening the PSF file ../psf/modelParameter.info ...
element: writing instance parameter values to rawfile.

Opening the PSF file ../psf/element.info ...
outputParameter: writing output parameter values to rawfile.

Opening the PSF file ../psf/outputParameter.info ...
designParamVals: writing netlist parameters to rawfile.

Opening the PSFASCII file ../psf/designParamVals.info ...
primitives: writing primitives to rawfile.

Opening the PSFASCII file ../psf/primitives.info.primitives ...
subckts: writing subcircuits to rawfile.

Opening the PSFASCII file ../psf/subckts.info.subckts ...
Licensing Information:
Lic Summary:
[13:50:33.423536] Cdslmd servers:5280@ls-dc2-fen-p1.services.bris.ac.uk:5280@ls-dc2-fen-p0.services.bris.ac.uk
[13:50:33.423560] Feature usage summary:
[13:50:33.423560] Virtuoso_Multi_mode_Simulation


Aggregate audit (1:50:33 PM, Fri Mar 8, 2024):
Time used: CPU = 262 ms, elapsed = 691 ms, util. = 38%.
Time spent in licensing: elapsed = 160 ms, percentage of total = 23.1%.
Peak memory used = 169 Mbytes.
Simulation started at: 1:50:33 PM, Fri Mar 8, 2024, ended at: 1:50:33 PM, Fri Mar 8, 2024, with elapsed time (wall clock): 691 ms.
spectre completes with 0 errors, 17 warnings, and 9 notices.
