
Spectre (R) Circuit Simulator
Version 18.1.0.077 64bit -- 1 Aug 2018
Copyright (C) 1989-2018 Cadence Design Systems, Inc. All rights reserved worldwide. Cadence and Spectre are registered trademarks of Cadence Design Systems, Inc. All others are the property of their respective holders.

Includes RSA BSAFE(R) Cryptographic or Security Protocol Software from RSA Security, Inc.

User: oj23092   Host: it075665.wks.bris.ac.uk   HostID: DE890A87   PID: 18929
Memory  available: 8.1212 GB  physical: 16.2980 GB
Linux   : Rocky Linux release 8.9 (Green Obsidian)
CPU Type: Intel(R) Core(TM) i7-8700 CPU @ 3.20GHz
        Socket: Processors [Frequency] (Hyperthreaded Processor)
        0:       0 [4341.3] (  6 ),  1 [3200.0] (  7 ),  2 [3200.0] (  8 )
                 3 [3200.0] (  9 ),  4 [3200.0] ( 10 ),  5 [4299.4] ( 11 )
        
System load averages (1min, 5min, 15min) : 0.2 %, 0.7 %, 0.7 %
Hyperthreading is enabled


Simulating `input.scs' on it075665.wks.bris.ac.uk at 12:34:41 PM, Tue Jan 30, 2024 (process id: 18929).
Current working directory: /home/oj23092/VLSI_Design_Lab/Sim/tb_inv/spectre/schematic/netlist
Command line:
     \
        /eda/cadence/2018-19/RHELx86/SPECTRE_18.10.077/tools.lnx86/bin/spectre  \
        -64 input.scs +escchars +log ../psf/spectre.out -format psfbin  \
        +rtsf -raw ../psf +lqtimeout 900 -maxw 5 -maxn 5 +param  \
        /eda/cadence/ams/4.10/spectre/ams_range.lmts

Loading /eda/cadence/2018-19/RHELx86/SPECTRE_18.10.077/tools.lnx86/cmi/lib/64bit/5.0/libinfineon_sh.so ...
Loading /eda/cadence/2018-19/RHELx86/SPECTRE_18.10.077/tools.lnx86/cmi/lib/64bit/5.0/libphilips_o_sh.so ...
Loading /eda/cadence/2018-19/RHELx86/SPECTRE_18.10.077/tools.lnx86/cmi/lib/64bit/5.0/libphilips_sh.so ...
Loading /eda/cadence/2018-19/RHELx86/SPECTRE_18.10.077/tools.lnx86/cmi/lib/64bit/5.0/libsparam_sh.so ...
Loading /eda/cadence/2018-19/RHELx86/SPECTRE_18.10.077/tools.lnx86/cmi/lib/64bit/5.0/libstmodels_sh.so ...
Reading file:  /home/oj23092/VLSI_Design_Lab/Sim/tb_inv/spectre/schematic/netlist/input.scs
Reading file:  /eda/cadence/ams/4.10/spectre/ams_range.lmts
Reading file:  /eda/cadence/2018-19/RHELx86/SPECTRE_18.10.077/tools.lnx86/spectre/etc/configs/mapsubckt.cfg
Reading file:  /eda/cadence/2018-19/RHELx86/SPECTRE_18.10.077/tools.lnx86/spectre/etc/configs/spectre.cfg
Reading file:  /eda/cadence/ams/4.10/spectre/c35/soac/soac.scs
Reading file:  /eda/cadence/ams/4.10/spectre/c35/soac/processOption.scs
Reading file:  /eda/cadence/ams/4.10/spectre/c35/soac/process.scs
Reading file:  /eda/cadence/ams/4.10/spectre/c35/soac/soac.va

Warning from spectre during AHDL read-in.
    WARNING (VACOMP-2435): The environment variable CDS_AHDLCMI_ENABLE is no longer supported. Therefore, the simulator will use the default compiled C code flow.

Reading link:  /eda/cadence/2018-19/RHELx86/SPECTRE_18.10.077/tools.lnx86/spectre/etc/ahdl/constants.h
Reading file:  /eda/cadence/2018-19/RHELx86/SPECTRE_18.10.077/tools.lnx86/spectre/etc/ahdl/constants.vams
Reading link:  /eda/cadence/2018-19/RHELx86/SPECTRE_18.10.077/tools.lnx86/spectre/etc/ahdl/discipline.h
Reading file:  /eda/cadence/2018-19/RHELx86/SPECTRE_18.10.077/tools.lnx86/spectre/etc/ahdl/disciplines.vams
Reading file:  /eda/cadence/ams/4.10/spectre/c35/processOption/C35B4C3.scs
Reading file:  /eda/cadence/ams/4.10/spectre/c35/soac/cmos53.scs
Reading file:  /eda/cadence/ams/4.10/spectre/c35/soac/res.scs
Reading file:  /eda/cadence/ams/4.10/spectre/c35/soac/cap.scs
Reading file:  /eda/cadence/ams/4.10/spectre/c35/soac/bip.scs
Reading file:  /eda/cadence/ams/4.10/spectre/c35/soac/ind.scs
Reading file:  /eda/cadence/ams/4.10/spectre/c35/soac/esddiode.scs
Time for NDB Parsing: CPU = 81.861 ms, elapsed = 213.243 ms.
Time accumulated: CPU = 99.612 ms, elapsed = 213.247 ms.
Peak resident memory used = 94.7 Mbytes.

Existing shared object for module modn_ahdl is up to date.
Installed compiled interface for modn_ahdl.
Existing shared object for module modp_ahdl is up to date.
Installed compiled interface for modp_ahdl.
Time for Elaboration: CPU = 22.617 ms, elapsed = 23.3989 ms.
Time accumulated: CPU = 122.297 ms, elapsed = 236.714 ms.
Peak resident memory used = 104 Mbytes.


Warning from spectre during hierarchy flattening.
    WARNING (SPECTRE-17101): The value 'psf' specified using the 'checklimitdest' option will no longer be supported in future releases.


Time for EDB Visiting: CPU = 1.074 ms, elapsed = 1.07813 ms.
Time accumulated: CPU = 123.445 ms, elapsed = 237.864 ms.
Peak resident memory used = 104 Mbytes.

Loading /eda/cadence/2018-19/RHELx86/SPECTRE_18.10.077/tools.lnx86/spectre/lib/64bit/mdl/libSpectreEH_sh.so ...

Warning from spectre during initial setup.
    WARNING (SPECTRE-16460): SOAC_cvarm_vspsub:Specified subcircuit master `cvarm' was not found.
    WARNING (SPECTRE-16462): SOAC_cvarm_vspsub:Error in specification of subcircuit master. Assert is ignored.
    WARNING (SPECTRE-16460): SOAC_cvarm_vbs:Specified subcircuit master `cvarm' was not found.
    WARNING (SPECTRE-16462): SOAC_cvarm_vbs:Error in specification of subcircuit master. Assert is ignored.
    WARNING (SPECTRE-16460): SOAC_cvarm_vgb:Specified subcircuit master `cvarm' was not found.
    WARNING (SPECTRE-16462): SOAC_cvarm_vgb:Error in specification of subcircuit master. Assert is ignored.
    WARNING (SPECTRE-16460): SOAC_cvart_vspsub:Specified subcircuit master `cvart' was not found.
    WARNING (SPECTRE-16462): SOAC_cvart_vspsub:Error in specification of subcircuit master. Assert is ignored.
    WARNING (SPECTRE-16460): SOAC_cvart_vbs:Specified subcircuit master `cvart' was not found.
        Further occurrences of this warning will be suppressed.
    WARNING (SPECTRE-16462): SOAC_cvart_vbs:Error in specification of subcircuit master. Assert is ignored.
        Further occurrences of this warning will be suppressed.
Notice from spectre during topology check.
    Only one connection to the following 2 nodes:
        I0.MN0.psub!
        I0.MP0.psub!


Global user options:
         psfversion = 1.1.0
            vabstol = 1e-06
            iabstol = 1e-12
               temp = 27
           homotopy = 7
              limit = delta
         compatible = spice2
               gmin = 1e-12
             rforce = 1
           maxnotes = 5
           maxwarns = 5
             digits = 5
               cols = 80
             pivrel = 0.001
           sensfile = ../psf/sens.output
     checklimitdest = psf
     enable_pre_ver = yes
      ignorezerovar = yes
               save = allpub
             reltol = 0.0001
               tnom = 27
             scalem = 1
              scale = 1

Scoped user options:

Circuit inventory:
              nodes 5
            bsim3v3 2     
          capacitor 1     
          modn_ahdl 1     
          modp_ahdl 1     
            vsource 2     

Analysis and control statement inventory:
               info 7     
               tran 1     

Output statements:
             .probe 0     
           .measure 0     
               save 0     

Design checks inventory:
             assert 175   
          paramtest 2     


Notice from spectre.
    2 warnings suppressed.

Time for parsing: CPU = 45.741 ms, elapsed = 313.483 ms.
Time accumulated: CPU = 169.241 ms, elapsed = 551.402 ms.
Peak resident memory used = 122 Mbytes.

~~~~~~~~~~~~~~~~~~~~~~
Pre-Simulation Summary
~~~~~~~~~~~~~~~~~~~~~~
~~~~~~~~~~~~~~~~~~~~~~

Notice from spectre during transient analysis `tran'.
    No checklimit analysis defined for asserts. A default checklimit analysis 'SpectreChecklimitAnal' has been created with all asserts enabled.

The following asserts will be enabled for all subsequent analyses until the next checklimit analysis statement is found:
SOAC_modn_vgs : ON 
SOAC_modn_vds : ON 
SOAC_modn_vgb : ON 
SOAC_modn_vdb : ON 
SOAC_modn_vsb : ON 
SOAC_modn_vbpsub : ON 
SOAC_modp_vgs : ON 
SOAC_modp_vds : ON 
SOAC_modp_vgb : ON 
SOAC_modp_vdb : ON 
SOAC_modp_vsb : ON 
SOAC_modp_vbpsub : ON 

************************************************
Transient Analysis `tran': time = (0 s -> 10 ns)
************************************************
DC simulation time: CPU = 279 us, elapsed = 281.096 us.

Opening the PSF file ../psf/tran.tran.tran ...
Important parameter values:
    start = 0 s
    outputstart = 0 s
    stop = 10 ns
    step = 10 ps
    maxstep = 100 ps
    ic = all
    useprevic = no
    skipdc = no
    reltol = 10e-06
    abstol(V) = 1 uV
    abstol(I) = 1 pA
    temp = 27 C
    tnom = 27 C
    tempeffects = all
    errpreset = conservative
    method = gear2only
    lteratio = 10
    relref = alllocal
    cmin = 0 F
    gmin = 1 pS


Output and IC/nodeset summary:
                 save   2       (current)
                 save   5       (voltage)

    tran: time = 254.7 ps    (2.55 %), step = 6.675 ps    (66.7 m%)
    tran: time = 793.5 ps    (7.94 %), step = 100 ps          (1 %)
    tran: time = 1.256 ns    (12.6 %), step = 9.386 ps    (93.9 m%)
    tran: time = 1.756 ns    (17.6 %), step = 8.9 ps        (89 m%)
    tran: time = 2.252 ns    (22.5 %), step = 6.585 ps    (65.8 m%)
    tran: time = 2.842 ns    (28.4 %), step = 100 ps          (1 %)
    tran: time = 3.257 ns    (32.6 %), step = 9.265 ps    (92.7 m%)
    tran: time = 3.757 ns    (37.6 %), step = 8.928 ps    (89.3 m%)
    tran: time = 4.255 ns    (42.5 %), step = 6.695 ps    (66.9 m%)
    tran: time = 4.755 ns    (47.5 %), step = 100 ps          (1 %)
    tran: time = 5.259 ns    (52.6 %), step = 9.017 ps    (90.2 m%)
    tran: time = 5.751 ns    (57.5 %), step = 8.771 ps    (87.7 m%)
    tran: time = 6.25 ns     (62.5 %), step = 6.517 ps    (65.2 m%)
    tran: time = 6.81 ns     (68.1 %), step = 100 ps          (1 %)
    tran: time = 7.253 ns    (72.5 %), step = 9.627 ps    (96.3 m%)
    tran: time = 7.756 ns    (77.6 %), step = 8.9 ps        (89 m%)
    tran: time = 8.252 ns    (82.5 %), step = 6.6 ps        (66 m%)
    tran: time = 8.751 ns    (87.5 %), step = 100 ps          (1 %)
    tran: time = 9.25 ns     (92.5 %), step = 10.11 ps     (101 m%)
    tran: time = 9.757 ns    (97.6 %), step = 8.938 ps    (89.4 m%)
Number of accepted tran steps =             1273

Maximum value achieved for any signal of each quantity: 
V: V(I0.MP0:int_d) = 3.333 V
I: I(V0:p) = 339.4 uA

~~~~~~~~~~~~~~~~~~~~~~~~~~~~~~~~~
Post-Transient Simulation Summary
~~~~~~~~~~~~~~~~~~~~~~~~~~~~~~~~~
   -   To further speed up simulation, consider
          add ++aps on command line
   -   Non-default settings that could significantly slow down simulation
          errpreset = conservative, default moderate
          reltol = 10e-06, default 100e-06 (conservative)
~~~~~~~~~~~~~~~~~~~~~~~~~~~~~~~~~


During simulation, the CPU load for active processors is :
        Spectre  0 (12.5 %)      1 (10.5 %)      2 (14.0 %)      3 (7.0 %)
                 4 (3.5 %)       5 (29.8 %)      6 (8.9 %)       7 (6.9 %)
                 8 (5.4 %)       9 (7.0 %)      10 (3.5 %)      11 (23.7 %)
        Other   
Initial condition solution time: CPU = 305 us, elapsed = 309.944 us.
Intrinsic tran analysis time:    CPU = 63.032 ms, elapsed = 66.7572 ms.
Total time required for tran analysis `tran': CPU = 92.586 ms, elapsed = 109.294 ms.
Time accumulated: CPU = 265.691 ms, elapsed = 671.279 ms.
Peak resident memory used = 126 Mbytes.

finalTimeOP: writing operating point information to rawfile.

Opening the PSF file ../psf/finalTimeOP.info ...
modelParameter: writing model parameter values to rawfile.

Opening the PSF file ../psf/modelParameter.info ...
element: writing instance parameter values to rawfile.

Opening the PSF file ../psf/element.info ...
outputParameter: writing output parameter values to rawfile.

Opening the PSF file ../psf/outputParameter.info ...
designParamVals: writing netlist parameters to rawfile.

Opening the PSFASCII file ../psf/designParamVals.info ...
primitives: writing primitives to rawfile.

Opening the PSFASCII file ../psf/primitives.info.primitives ...
subckts: writing subcircuits to rawfile.

Opening the PSFASCII file ../psf/subckts.info.subckts ...

Aggregate audit (12:34:42 PM, Tue Jan 30, 2024):
Time used: CPU = 277 ms, elapsed = 700 ms, util. = 39.6%.
Time spent in licensing: elapsed = 83.7 ms, percentage of total = 12%.
Peak memory used = 128 Mbytes.
Simulation started at: 12:34:41 PM, Tue Jan 30, 2024, ended at: 12:34:42 PM, Tue Jan 30, 2024, with elapsed time (wall clock): 700 ms.
spectre completes with 0 errors, 12 warnings, and 3 notices.
