
Spectre (R) Circuit Simulator
Version 18.1.0.077 64bit -- 1 Aug 2018
Copyright (C) 1989-2018 Cadence Design Systems, Inc. All rights reserved worldwide. Cadence and Spectre are registered trademarks of Cadence Design Systems, Inc. All others are the property of their respective holders.

Includes RSA BSAFE(R) Cryptographic or Security Protocol Software from RSA Security, Inc.

User: oj23092   Host: it075665.wks.bris.ac.uk   HostID: DE890A87   PID: 204388
Memory  available: 6.6442 GB  physical: 16.2980 GB
Linux   : Rocky Linux release 8.9 (Green Obsidian)
CPU Type: Intel(R) Core(TM) i7-8700 CPU @ 3.20GHz
        Socket: Processors [Frequency] (Hyperthreaded Processor)
        0:       0 [3200.0] (  6 ),  1 [4300.0] (  7 ),  2 [3200.0] (  8 )
                 3 [3200.0] (  9 ),  4 [3200.0] ( 10 ),  5 [3200.0] ( 11 )
        
System load averages (1min, 5min, 15min) : 3.2 %, 1.3 %, 1.1 %
Hyperthreading is enabled


Simulating `input.scs' on it075665.wks.bris.ac.uk at 10:14:36 AM, Tue Jan 30, 2024 (process id: 204388).
Current working directory: /home/oj23092/VLSI_Design_Lab/Sim/tb_inv/spectre/schematic/netlist
Command line:
     \
        /eda/cadence/2018-19/RHELx86/SPECTRE_18.10.077/tools.lnx86/bin/spectre  \
        -64 input.scs +escchars +log ../psf/spectre.out -format psfbin  \
        +rtsf -raw ../psf +lqtimeout 900 -maxw 5 -maxn 5 +param  \
        /eda/cadence/ams/4.10/spectre/ams_range.lmts

Loading /eda/cadence/2018-19/RHELx86/SPECTRE_18.10.077/tools.lnx86/cmi/lib/64bit/5.0/libinfineon_sh.so ...
Loading /eda/cadence/2018-19/RHELx86/SPECTRE_18.10.077/tools.lnx86/cmi/lib/64bit/5.0/libphilips_o_sh.so ...
Loading /eda/cadence/2018-19/RHELx86/SPECTRE_18.10.077/tools.lnx86/cmi/lib/64bit/5.0/libphilips_sh.so ...
Loading /eda/cadence/2018-19/RHELx86/SPECTRE_18.10.077/tools.lnx86/cmi/lib/64bit/5.0/libsparam_sh.so ...
Loading /eda/cadence/2018-19/RHELx86/SPECTRE_18.10.077/tools.lnx86/cmi/lib/64bit/5.0/libstmodels_sh.so ...
Reading file:  /home/oj23092/VLSI_Design_Lab/Sim/tb_inv/spectre/schematic/netlist/input.scs
Reading file:  /eda/cadence/ams/4.10/spectre/ams_range.lmts
Reading file:  /eda/cadence/2018-19/RHELx86/SPECTRE_18.10.077/tools.lnx86/spectre/etc/configs/mapsubckt.cfg
Reading file:  /eda/cadence/2018-19/RHELx86/SPECTRE_18.10.077/tools.lnx86/spectre/etc/configs/spectre.cfg
Reading file:  /eda/cadence/ams/4.10/spectre/c35/soac/soac.scs
Reading file:  /eda/cadence/ams/4.10/spectre/c35/soac/processOption.scs
Reading file:  /eda/cadence/ams/4.10/spectre/c35/soac/process.scs
Reading file:  /eda/cadence/ams/4.10/spectre/c35/soac/soac.va

Warning from spectre during AHDL read-in.
    WARNING (VACOMP-2435): The environment variable CDS_AHDLCMI_ENABLE is no longer supported. Therefore, the simulator will use the default compiled C code flow.

Reading link:  /eda/cadence/2018-19/RHELx86/SPECTRE_18.10.077/tools.lnx86/spectre/etc/ahdl/constants.h
Reading file:  /eda/cadence/2018-19/RHELx86/SPECTRE_18.10.077/tools.lnx86/spectre/etc/ahdl/constants.vams
Reading link:  /eda/cadence/2018-19/RHELx86/SPECTRE_18.10.077/tools.lnx86/spectre/etc/ahdl/discipline.h
Reading file:  /eda/cadence/2018-19/RHELx86/SPECTRE_18.10.077/tools.lnx86/spectre/etc/ahdl/disciplines.vams
Reading file:  /eda/cadence/ams/4.10/spectre/c35/processOption/C35B4C3.scs
Reading file:  /eda/cadence/ams/4.10/spectre/c35/soac/cmos53.scs
Reading file:  /eda/cadence/ams/4.10/spectre/c35/soac/res.scs
Reading file:  /eda/cadence/ams/4.10/spectre/c35/soac/cap.scs
Reading file:  /eda/cadence/ams/4.10/spectre/c35/soac/bip.scs
Reading file:  /eda/cadence/ams/4.10/spectre/c35/soac/ind.scs
Reading file:  /eda/cadence/ams/4.10/spectre/c35/soac/esddiode.scs
Time for NDB Parsing: CPU = 80.877 ms, elapsed = 213.849 ms.
Time accumulated: CPU = 98.441 ms, elapsed = 213.853 ms.
Peak resident memory used = 95.2 Mbytes.

Existing shared object for module modn_ahdl is up to date.
Installed compiled interface for modn_ahdl.
Existing shared object for module modp_ahdl is up to date.
Installed compiled interface for modp_ahdl.
Time for Elaboration: CPU = 22.663 ms, elapsed = 22.927 ms.
Time accumulated: CPU = 121.169 ms, elapsed = 236.844 ms.
Peak resident memory used = 104 Mbytes.


Warning from spectre during hierarchy flattening.
    WARNING (SPECTRE-17101): The value 'psf' specified using the 'checklimitdest' option will no longer be supported in future releases.


Time for EDB Visiting: CPU = 1.177 ms, elapsed = 1.17993 ms.
Time accumulated: CPU = 122.416 ms, elapsed = 238.093 ms.
Peak resident memory used = 105 Mbytes.

Loading /eda/cadence/2018-19/RHELx86/SPECTRE_18.10.077/tools.lnx86/spectre/lib/64bit/mdl/libSpectreEH_sh.so ...

Warning from spectre during initial setup.
    WARNING (SPECTRE-16460): SOAC_cvarm_vspsub:Specified subcircuit master `cvarm' was not found.
    WARNING (SPECTRE-16462): SOAC_cvarm_vspsub:Error in specification of subcircuit master. Assert is ignored.
    WARNING (SPECTRE-16460): SOAC_cvarm_vbs:Specified subcircuit master `cvarm' was not found.
    WARNING (SPECTRE-16462): SOAC_cvarm_vbs:Error in specification of subcircuit master. Assert is ignored.
    WARNING (SPECTRE-16460): SOAC_cvarm_vgb:Specified subcircuit master `cvarm' was not found.
    WARNING (SPECTRE-16462): SOAC_cvarm_vgb:Error in specification of subcircuit master. Assert is ignored.
    WARNING (SPECTRE-16460): SOAC_cvart_vspsub:Specified subcircuit master `cvart' was not found.
    WARNING (SPECTRE-16462): SOAC_cvart_vspsub:Error in specification of subcircuit master. Assert is ignored.
    WARNING (SPECTRE-16460): SOAC_cvart_vbs:Specified subcircuit master `cvart' was not found.
        Further occurrences of this warning will be suppressed.
    WARNING (SPECTRE-16462): SOAC_cvart_vbs:Error in specification of subcircuit master. Assert is ignored.
        Further occurrences of this warning will be suppressed.
Notice from spectre during topology check.
    Only one connection to the following 2 nodes:
        I0.MN0.psub!
        I0.MP0.psub!


Global user options:
         psfversion = 1.1.0
            vabstol = 1e-06
            iabstol = 1e-12
               temp = 27
           homotopy = 7
              limit = delta
         compatible = spice2
               gmin = 1e-12
             rforce = 1
           maxnotes = 5
           maxwarns = 5
             digits = 5
               cols = 80
             pivrel = 0.001
           sensfile = ../psf/sens.output
     checklimitdest = psf
     enable_pre_ver = yes
      ignorezerovar = yes
               save = allpub
             reltol = 0.0001
               tnom = 27
             scalem = 1
              scale = 1

Scoped user options:

Circuit inventory:
              nodes 5
            bsim3v3 2     
          capacitor 1     
          modn_ahdl 1     
          modp_ahdl 1     
            vsource 2     

Analysis and control statement inventory:
               info 7     
               tran 1     

Output statements:
             .probe 0     
           .measure 0     
               save 0     

Design checks inventory:
             assert 175   
          paramtest 2     


Notice from spectre.
    2 warnings suppressed.

Time for parsing: CPU = 46.384 ms, elapsed = 315.028 ms.
Time accumulated: CPU = 168.853 ms, elapsed = 553.174 ms.
Peak resident memory used = 123 Mbytes.

~~~~~~~~~~~~~~~~~~~~~~
Pre-Simulation Summary
~~~~~~~~~~~~~~~~~~~~~~
~~~~~~~~~~~~~~~~~~~~~~

Notice from spectre during transient analysis `tran'.
    No checklimit analysis defined for asserts. A default checklimit analysis 'SpectreChecklimitAnal' has been created with all asserts enabled.

The following asserts will be enabled for all subsequent analyses until the next checklimit analysis statement is found:
SOAC_modn_vgs : ON 
SOAC_modn_vds : ON 
SOAC_modn_vgb : ON 
SOAC_modn_vdb : ON 
SOAC_modn_vsb : ON 
SOAC_modn_vbpsub : ON 
SOAC_modp_vgs : ON 
SOAC_modp_vds : ON 
SOAC_modp_vgb : ON 
SOAC_modp_vdb : ON 
SOAC_modp_vsb : ON 
SOAC_modp_vbpsub : ON 

************************************************
Transient Analysis `tran': time = (0 s -> 10 ns)
************************************************
DC simulation time: CPU = 228 us, elapsed = 228.882 us.

Opening the PSF file ../psf/tran.tran.tran ...
Important parameter values:
    start = 0 s
    outputstart = 0 s
    stop = 10 ns
    step = 10 ps
    maxstep = 100 ps
    ic = all
    useprevic = no
    skipdc = no
    reltol = 10e-06
    abstol(V) = 1 uV
    abstol(I) = 1 pA
    temp = 27 C
    tnom = 27 C
    tempeffects = all
    errpreset = conservative
    method = gear2only
    lteratio = 10
    relref = alllocal
    cmin = 0 F
    gmin = 1 pS


Output and IC/nodeset summary:
                 save   2       (current)
                 save   5       (voltage)

    tran: time = 250.3 ps     (2.5 %), step = 42.15 ps     (421 m%)
    tran: time = 823.3 ps    (8.23 %), step = 100 ps          (1 %)
    tran: time = 1.252 ns    (12.5 %), step = 7.843 ps    (78.4 m%)
    tran: time = 1.77 ns     (17.7 %), step = 88.61 ps     (886 m%)
    tran: time = 2.257 ns    (22.6 %), step = 49.48 ps     (495 m%)
    tran: time = 2.849 ns    (28.5 %), step = 100 ps          (1 %)
    tran: time = 3.255 ns    (32.5 %), step = 5.898 ps      (59 m%)
    tran: time = 3.767 ns    (37.7 %), step = 87.43 ps     (874 m%)
    tran: time = 4.327 ns    (43.3 %), step = 79.9 ps      (799 m%)
    tran: time = 4.827 ns    (48.3 %), step = 100 ps          (1 %)
    tran: time = 5.255 ns    (52.6 %), step = 5.858 ps    (58.6 m%)
    tran: time = 5.85 ns     (58.5 %), step = 100 ps          (1 %)
    tran: time = 6.328 ns    (63.3 %), step = 80.16 ps     (802 m%)
    tran: time = 6.828 ns    (68.3 %), step = 100 ps          (1 %)
    tran: time = 7.252 ns    (72.5 %), step = 8.565 ps    (85.6 m%)
    tran: time = 7.848 ns    (78.5 %), step = 100 ps          (1 %)
    tran: time = 8.327 ns    (83.3 %), step = 79.61 ps     (796 m%)
    tran: time = 8.827 ns    (88.3 %), step = 100 ps          (1 %)
    tran: time = 9.255 ns    (92.6 %), step = 5.864 ps    (58.6 m%)
    tran: time = 9.846 ns    (98.5 %), step = 100 ps          (1 %)
Number of accepted tran steps =             1133

Maximum value achieved for any signal of each quantity: 
V: V(I0.MP0:int_d) = 3.398 V
I: I(V1:p) = 1.325 mA

~~~~~~~~~~~~~~~~~~~~~~~~~~~~~~~~~
Post-Transient Simulation Summary
~~~~~~~~~~~~~~~~~~~~~~~~~~~~~~~~~
   -   To further speed up simulation, consider
          add ++aps on command line
   -   Non-default settings that could significantly slow down simulation
          errpreset = conservative, default moderate
          reltol = 10e-06, default 100e-06 (conservative)
~~~~~~~~~~~~~~~~~~~~~~~~~~~~~~~~~


During simulation, the CPU load for active processors is :
        Spectre  0 (23.2 %)      1 (8.9 %)       2 (25.0 %)      3 (5.3 %)
                 4 (3.6 %)       5 (6.9 %)       6 (19.6 %)      7 (7.1 %)
                 8 (8.8 %)       9 (5.4 %)      10 (3.6 %)      11 (7.1 %)
        Other   
Initial condition solution time: CPU = 252 us, elapsed = 253.201 us.
Intrinsic tran analysis time:    CPU = 52.334 ms, elapsed = 55.2349 ms.
Total time required for tran analysis `tran': CPU = 82.005 ms, elapsed = 97.151 ms.
Time accumulated: CPU = 254.7 ms, elapsed = 660.781 ms.
Peak resident memory used = 127 Mbytes.

finalTimeOP: writing operating point information to rawfile.

Opening the PSF file ../psf/finalTimeOP.info ...
modelParameter: writing model parameter values to rawfile.

Opening the PSF file ../psf/modelParameter.info ...
element: writing instance parameter values to rawfile.

Opening the PSF file ../psf/element.info ...
outputParameter: writing output parameter values to rawfile.

Opening the PSF file ../psf/outputParameter.info ...
designParamVals: writing netlist parameters to rawfile.

Opening the PSFASCII file ../psf/designParamVals.info ...
primitives: writing primitives to rawfile.

Opening the PSFASCII file ../psf/primitives.info.primitives ...
subckts: writing subcircuits to rawfile.

Opening the PSFASCII file ../psf/subckts.info.subckts ...

Aggregate audit (10:14:37 AM, Tue Jan 30, 2024):
Time used: CPU = 266 ms, elapsed = 689 ms, util. = 38.6%.
Time spent in licensing: elapsed = 84.4 ms, percentage of total = 12.3%.
Peak memory used = 128 Mbytes.
Simulation started at: 10:14:36 AM, Tue Jan 30, 2024, ended at: 10:14:37 AM, Tue Jan 30, 2024, with elapsed time (wall clock): 689 ms.
spectre completes with 0 errors, 12 warnings, and 3 notices.
