
Spectre (R) Circuit Simulator
Version 21.1.0.751.isr19 64bit -- 22 May 2023
Copyright (C) 1989-2023 Cadence Design Systems, Inc. All rights reserved worldwide. Cadence and Spectre are registered trademarks of Cadence Design Systems, Inc. All others are the property of their respective holders.

Includes RSA BSAFE(R) Cryptographic or Security Protocol Software from RSA Security, Inc.

User: oj23092   Host: it075891.wks.bris.ac.uk   HostID: DE89A69F   PID: 236443
Memory  available: 12.5837 GB  physical: 16.2980 GB
Linux   : Rocky Linux release 8.9 (Green Obsidian)
CPU Type: Intel(R) Core(TM) i7-8700 CPU @ 3.20GHz
        Socket: Processors [Frequency] (Hyperthreaded Processor)
        0:       0 [3200.0] (  6 ),  1 [3200.0] (  7 ),  2 [3200.0] (  8 )
                 3 [3200.0] (  9 ),  4 [3200.0] ( 10 ),  5 [3200.0] ( 11 )
        
System load averages (1min, 5min, 15min) : 11.4 %, 5.8 %, 2.7 %
Hyperthreading is enabled
HPC is enabled


Simulating `input.scs' on it075891.wks.bris.ac.uk at 9:21:47 PM, Sat Apr 20, 2024 (process id: 236443).
Current working directory: /home/oj23092/VLSI_Design_Lab/Sim/lab2024/tb_ycircuit/adexl/results/data/MonteCarlo.0/3/lab2024:tb_ycircuit:1/groupRunDataDir/netlist
Command line:
     \
        /eda/cadence/2022-23/RHELx86/SPECTRE_21.10.751/tools.lnx86/bin/spectre  \
        -64 input.scs +escchars +log ../psf/spectre.out -format psfbin  \
        +rtsf -raw ../psf +aps +mt +lqtimeout 900 -maxw 5 -maxn 5  \
        +param /eda/cadence/ams/4.10/spectre/ams_range.lmts -env ade  \
        -ahdllibdir  \
        /home/oj23092/VLSI_Design_Lab/Sim/lab2024/tb_ycircuit/adexl/results/data/MonteCarlo.0/sharedData/Job1/ahdl/input.ahdlSimDB  \
        +logstatus

Licensing Information:
[21:21:47.289674] Configured Lic search path (21.01-s002): 5280@ls-dc2-fen-p1.services.bris.ac.uk:5280@ls-dc2-fen-p0.services.bris.ac.uk

Licensing Information:
[21:21:47.481233] Periodic Lic check successful

Loading /eda/cadence/2022-23/RHELx86/SPECTRE_21.10.751/tools.lnx86/cmi/lib/64bit/5.0/libinfineon_sh.so ...
Loading /eda/cadence/2022-23/RHELx86/SPECTRE_21.10.751/tools.lnx86/cmi/lib/64bit/5.0/libphilips_o_sh.so ...
Loading /eda/cadence/2022-23/RHELx86/SPECTRE_21.10.751/tools.lnx86/cmi/lib/64bit/5.0/libphilips_sh.so ...
Loading /eda/cadence/2022-23/RHELx86/SPECTRE_21.10.751/tools.lnx86/cmi/lib/64bit/5.0/libsparam_sh.so ...
Loading /eda/cadence/2022-23/RHELx86/SPECTRE_21.10.751/tools.lnx86/cmi/lib/64bit/5.0/libstmodels_sh.so ...
Reading file:  /home/oj23092/VLSI_Design_Lab/Sim/lab2024/tb_ycircuit/adexl/results/data/MonteCarlo.0/3/lab2024:tb_ycircuit:1/groupRunDataDir/netlist/input.scs
Reading file:  /eda/cadence/ams/4.10/spectre/ams_range.lmts

Warning from spectre during read of parameter soft limits file `/eda/cadence/ams/4.10/spectre/ams_range.lmts', during circuit read-in.
    WARNING (SPECTRE-8360): line 1511: `ac' is an undefined primitive device.
    WARNING (SPECTRE-8360): line 1512: `ac' is an undefined primitive device.
    WARNING (SPECTRE-8360): line 1513: `ac' is an undefined primitive device.
    WARNING (SPECTRE-8360): line 1514: `ac' is an undefined primitive device.
    WARNING (SPECTRE-8360): line 1515: `ac' is an undefined primitive device.
        Further occurrences of this warning will be suppressed.

Reading file:  /eda/cadence/2022-23/RHELx86/SPECTRE_21.10.751/tools.lnx86/spectre/etc/configs/spectre.cfg
Reading file:  /eda/cadence/ams/4.10/spectre/c35/soac/soac.scs
Reading file:  /eda/cadence/ams/4.10/spectre/c35/soac/res.scs
Reading file:  /eda/cadence/ams/4.10/spectre/c35/soac/bip.scs
Reading file:  /eda/cadence/ams/4.10/spectre/c35/soac/cap.scs
Reading file:  /eda/cadence/ams/4.10/spectre/c35/soac/esddiode.scs
Reading file:  /eda/cadence/ams/4.10/spectre/c35/soac/ind.scs
Reading file:  /eda/cadence/ams/4.10/spectre/c35/soac/cmos53.scs
Reading file:  /eda/cadence/ams/4.10/spectre/c35/soac/processOption.scs
Reading file:  /eda/cadence/ams/4.10/spectre/c35/soac/process.scs
Reading file:  /eda/cadence/ams/4.10/spectre/c35/soac/soac.va

Warning from spectre during AHDL read-in.
    WARNING (VACOMP-2435): The environment variable CDS_AHDLCMI_ENABLE is no longer supported. Therefore, the simulator will use the default compiled C code flow.

Reading link:  /eda/cadence/2022-23/RHELx86/SPECTRE_21.10.751/tools.lnx86/spectre/etc/ahdl/constants.h
Reading file:  /eda/cadence/2022-23/RHELx86/SPECTRE_21.10.751/tools.lnx86/spectre/etc/ahdl/constants.vams
Reading link:  /eda/cadence/2022-23/RHELx86/SPECTRE_21.10.751/tools.lnx86/spectre/etc/ahdl/discipline.h
Reading file:  /eda/cadence/2022-23/RHELx86/SPECTRE_21.10.751/tools.lnx86/spectre/etc/ahdl/disciplines.vams
Reading file:  /eda/cadence/ams/4.10/spectre/c35/processOption/C35B4C3.scs
Time for NDB Parsing: CPU = 75.82 ms, elapsed = 392.886 ms.
Time accumulated: CPU = 132.447 ms, elapsed = 392.888 ms.
Peak resident memory used = 160 Mbytes.

TCP: opening server port it075891.wks.bris.ac.uk:45031
Existing shared object for module modp_ahdl is up to date.
Installed compiled interface for modp_ahdl.
Existing shared object for module modn_ahdl is up to date.
Installed compiled interface for modn_ahdl.
Time for Elaboration: CPU = 19.963 ms, elapsed = 22.3691 ms.
Time accumulated: CPU = 152.472 ms, elapsed = 415.318 ms.
Peak resident memory used = 168 Mbytes.


Notice from spectre during hierarchy flattening.
    The value 'psf' specified for the 'checklimitdest' option will no longer be supported in future releases. Use 'spectre -h' to see other recommended values for the 'checklimitdest' option.


Time for EDB Visiting: CPU = 1.353 ms, elapsed = 1.97005 ms.
Time accumulated: CPU = 153.89 ms, elapsed = 417.353 ms.
Peak resident memory used = 170 Mbytes.

Loading /eda/cadence/2022-23/RHELx86/SPECTRE_21.10.751/tools.lnx86/mdl/lib/64bit/libSpectreEH_sh.so ...

Warning from spectre during initial setup.
    WARNING (SPECTRE-16460): SOAC_cvarm_vspsub:Specified subcircuit master `cvarm' was not found.
    WARNING (SPECTRE-16462): SOAC_cvarm_vspsub:Error in specification of subcircuit master. Assert is ignored.
    WARNING (SPECTRE-16460): SOAC_cvarm_vbs:Specified subcircuit master `cvarm' was not found.
    WARNING (SPECTRE-16462): SOAC_cvarm_vbs:Error in specification of subcircuit master. Assert is ignored.
    WARNING (SPECTRE-16460): SOAC_cvarm_vgb:Specified subcircuit master `cvarm' was not found.
    WARNING (SPECTRE-16462): SOAC_cvarm_vgb:Error in specification of subcircuit master. Assert is ignored.
    WARNING (SPECTRE-16460): SOAC_cvart_vspsub:Specified subcircuit master `cvart' was not found.
    WARNING (SPECTRE-16462): SOAC_cvart_vspsub:Error in specification of subcircuit master. Assert is ignored.
    WARNING (SPECTRE-16460): SOAC_cvart_vbs:Specified subcircuit master `cvart' was not found.
        Further occurrences of this warning will be suppressed.
    WARNING (SPECTRE-16462): SOAC_cvart_vbs:Error in specification of subcircuit master. Assert is ignored.
        Further occurrences of this warning will be suppressed.
Notice from spectre during initial setup.
    Ignorevaref=yes is ignored since all nodes are connected to Verilog-A modules.
Notice from spectre during topology check.
    Only one connection to the following 8 nodes:
        I0.MPD.psub!
        I0.MPC.psub!
        I0.MPB.psub!
        I0.MPA.psub!
        I0.MNC.psub!
        Further occurrences of this notice will be suppressed.
Notice from spectre during initial setup.
    Multithreading is disabled due to the size of the design being too small.


Global user options:
         psfversion = 1.4.0
            vabstol = 1e-06
            iabstol = 1e-12
               temp = 27
           homotopy = 5
              limit = delta
         compatible = spice2
               gmin = 1e-12
             rforce = 1
           maxnotes = 5
           maxwarns = 5
             digits = 5
               cols = 80
             pivrel = 0.001
           sensfile = ../psf/sens.output
     checklimitdest = psf
     enable_pre_ver = yes
      ignorezerovar = yes
               save = allpub
             reltol = 0.0001
               tnom = 27
             scalem = 1
              scale = 1

Scoped user options:

Circuit inventory:
              nodes 17
            bsim3v3 8     
          capacitor 1     
          modn_ahdl 4     
          modp_ahdl 4     
            vsource 5     

Analysis and control statement inventory:
               info 7     
         montecarlo 1     
               tran 1     

Output statements:
             .probe 0     
           .measure 0     
               save 1     

Design checks inventory:
          paramtest 8     
             assert 175   


Notice from spectre during initial setup.
    APS enabled.
    1 notice suppressed.
    72 warnings suppressed.

Time for parsing: CPU = 5.699 ms, elapsed = 267.565 ms.
Time accumulated: CPU = 159.645 ms, elapsed = 684.974 ms.
Peak resident memory used = 176 Mbytes.

~~~~~~~~~~~~~~~~~~~~~~
Pre-Simulation Summary
~~~~~~~~~~~~~~~~~~~~~~
   -   (APS) Multi-threading. The recommended number of threads is 1, consider adding +mt=1 on command line.
~~~~~~~~~~~~~~~~~~~~~~

**************************************************
Monte Carlo Analysis `mc1': iteration = (1 -> 200)
**************************************************
Important parameter values:
    seed = 12345
    sampling = lds
    variations = all
    firstrun = 1
    numruns = 200
    nullmfactorcorrelation = no
    donominal = no
    method = standard
Opening iteration number and data-directory mapping file:  /home/oj23092/VLSI_Design_Lab/Sim/lab2024/tb_ycircuit/adexl/results/data/MonteCarlo.0/3/lab2024:tb_ycircuit:1/groupRunDataDir/netlist/../psf/mc1.mapping

Statistical parameters:
    Defined process parameters: 629
    Defined mismatch parameters (subckt based): 86
    Non-referenced mismatch parameters: 82
    Number of random variables: 645
    Gaussian truncation for process parameters: 4.00 sigma
    Gaussian truncation for mismatch parameters: 4.00 sigma


Opening the PSF file ../psf/mc1_tran.montecarlo ...

Opening the PSF file ../psf/mc1_finalTimeOP.montecarlo ...

Opening the PSF file ../psf/mc1_modelParameter.montecarlo ...

Opening the PSF file ../psf/mc1_element.montecarlo ...

Opening the PSF file ../psf/mc1_outputParameter.montecarlo ...

Opening the PSF file ../psf/mc1_designParamVals.montecarlo ...

Opening the PSF file ../psf/mc1_primitives.montecarlo ...

Opening the PSF file ../psf/mc1_subckts.montecarlo ...

**** Performing monte carlo loop for `mc1'

1              0.00% 

Notice from spectre at iteration = 1 during transient analysis `tran', during Monte Carlo analysis `mc1'.
    No checklimit analysis defined for asserts. A default checklimit analysis 'SpectreChecklimitAnal' has been created with all asserts enabled.


************************************************
Transient Analysis `tran': time = (0 s -> 20 ns)
************************************************

Opening the PSF file ../psf/mc1_separate/001/tran.tran.tran ...

Notice from spectre at iteration = 1 during IC analysis, during transient analysis `tran', during Monte Carlo analysis `mc1'.
    GminDC = 1 pS is large enough to noticeably affect the DC solution.
        dV(I0.net2) = 4.79325 mV
        Use the `gmin_check' option to eliminate or expand this report.
Warning from spectre at iteration = 1 during check, during IC analysis, during transient analysis `tran', during Monte Carlo analysis `mc1'.
    WARNING (CMI-2943): Parameter checks have been ignored because the valid value for parameter 'trise' could not be found in 'C0'.

DC simulation time: CPU = 430 us, elapsed = 435.114 us.
Important parameter values:
    start = 0 s
    outputstart = 0 s
    stop = 20 ns
    step = 20 ps
    maxstep = 200 ps
    ic = all
    useprevic = no
    skipdc = no
    reltol = 10e-06
    abstol(V) = 1 uV
    abstol(I) = 1 pA
    temp = 27 C
    tnom = 27 C
    tempeffects = all
    errpreset = conservative
    method = gear2only
    lteratio = 10
    relref = alllocal
    cmin = 0 F
    gmin = 1 pS
    rabsshort = 1 mOhm


Notice from spectre at iteration = 1 during transient analysis `tran', during Monte Carlo analysis `mc1'.
    Multithreading is disabled due to the size of the design being too small.


Output and IC/nodeset summary:
                 save   5       (current)
                 save   17      (voltage)


Opening the PSF file ../psf/mc1_tranViolations.montecarlo ...
    tran: time = 500.1 ps     (2.5 %), step = 47.4 ps      (237 m%)
    tran: time = 1.51 ns     (7.55 %), step = 25.53 ps     (128 m%)
    tran: time = 2.518 ns    (12.6 %), step = 32.99 ps     (165 m%)
    tran: time = 3.511 ns    (17.6 %), step = 34.39 ps     (172 m%)
    tran: time = 4.51 ns     (22.5 %), step = 20.45 ps     (102 m%)
    tran: time = 5.504 ns    (27.5 %), step = 16.15 ps    (80.7 m%)
SOAC: I0.MND.soac_m1       modn V(B,PSUB): LEAVING@  0.00500267us ;
SOAC: I0.MNA.soac_m1       modn V(B,PSUB): LEAVING@  0.005007us ;
SOAC: I0.MND.soac_m1       modn V(B,PSUB): ENTERING@ 0.00619713us duration:0.00119us ;
SOAC: I0.MNA.soac_m1       modn V(B,PSUB): ENTERING@ 0.00619713us duration:0.00119us ;
    tran: time = 6.513 ns    (32.6 %), step = 13.42 ps    (67.1 m%)
    tran: time = 7.507 ns    (37.5 %), step = 15.82 ps    (79.1 m%)
    tran: time = 8.515 ns    (42.6 %), step = 16.64 ps    (83.2 m%)
    tran: time = 9.508 ns    (47.5 %), step = 20.7 ps      (104 m%)
SOAC: I0.MND.soac_m1       modn V(B,PSUB): LEAVING@  0.0090023us ;
SOAC: I0.MNA.soac_m1       modn V(B,PSUB): LEAVING@  0.00900656us ;
SOAC: I0.MNA.soac_m1       modn V(B,PSUB): ENTERING@ 0.0101627us duration:0.00116us ;
SOAC: I0.MND.soac_m1       modn V(B,PSUB): ENTERING@ 0.0101962us duration:0.00119us ;
    tran: time = 10.51 ns    (52.5 %), step = 13.01 ps      (65 m%)
SOAC: I0.MND.soac_m1       modn V(B,PSUB): LEAVING@  0.0102087us ;
    tran: time = 11.51 ns    (57.5 %), step = 15.02 ps    (75.1 m%)
SOAC: I0.MND.soac_m1       modn V(B,PSUB): ENTERING@ 0.0115408us duration:0.00133us ;
    tran: time = 12.51 ns    (62.6 %), step = 14.65 ps    (73.2 m%)
SOAC: I0.MND.soac_m1       modn V(B,PSUB): LEAVING@  0.0122841us ;
    tran: time = 13.51 ns    (67.5 %), step = 26.86 ps     (134 m%)
    tran: time = 14.52 ns    (72.6 %), step = 39.25 ps     (196 m%)
    tran: time = 15.51 ns    (77.6 %), step = 16.78 ps    (83.9 m%)
SOAC: I0.MND.soac_m1       modn V(B,PSUB): ENTERING@ 0.0155556us duration:0.00327us ;
SOAC: I0.MNA.soac_m1       modn V(B,PSUB): LEAVING@  0.0150531us ;
SOAC: I0.MNA.soac_m1       modn V(B,PSUB): ENTERING@ 0.0160545us duration:0.001us ;
    tran: time = 16.51 ns    (82.6 %), step = 14.73 ps    (73.6 m%)
SOAC: I0.MND.soac_m1       modn V(B,PSUB): LEAVING@  0.0162841us ;
    tran: time = 17.52 ns    (87.6 %), step = 27.12 ps     (136 m%)
    tran: time = 18.52 ns    (92.6 %), step = 38.77 ps     (194 m%)
    tran: time = 19.51 ns    (97.6 %), step = 16.79 ps      (84 m%)
SOAC: I0.MND.soac_m1       modn V(B,PSUB): ENTERING@ 0.0195556us duration:0.00327us ;
Number of accepted tran steps =             2540

Maximum value achieved for any signal of each quantity: 
V: V(I0.net1) = 3.63 V
I: I(V:p) = 251.8 uA

~~~~~~~~~~~~~~~~~~~~~~~~~~~~~~~~~
Post-Transient Simulation Summary
~~~~~~~~~~~~~~~~~~~~~~~~~~~~~~~~~
   -   To further speed up simulation, consider
          add ++aps on command line
   -   Non-default settings that could significantly slow down simulation
          errpreset = conservative, default moderate
          reltol = 10e-06, default 100e-06 (conservative)
   -   Features that may significantly slowing down simulation
          asserts = 57.0803 ms
~~~~~~~~~~~~~~~~~~~~~~~~~~~~~~~~~


During simulation, the CPU load for active processors is :
         0 (3.1 %)       1 (2.0 %)       2 (1.0 %)       3 (2.0 %)
         4 (10.2 %)      5 (2.0 %)       6 (3.0 %)       7 (2.0 %)
         8 (1.0 %)       9 (39.8 %)     10 (9.2 %)      11 (1.0 %)
        Total: 76.5%
Initial condition solution time: CPU = 452 us, elapsed = 455.856 us.
Intrinsic tran analysis time:    CPU = 273.302 ms, elapsed = 286.172 ms.
Total time required for tran analysis `tran': CPU = 276.265 ms, elapsed = 305.51 ms, util. = 90.4%.
Time accumulated: CPU = 455.202 ms, elapsed = 1.03042 s.
Peak resident memory used = 192 Mbytes.

finalTimeOP: writing operating point information to rawfile.

Opening the PSF file ../psf/mc1_separate/001/finalTimeOP.info ...
modelParameter: writing model parameter values to rawfile.

Opening the PSF file ../psf/mc1_separate/001/modelParameter.info ...
element: writing instance parameter values to rawfile.

Opening the PSF file ../psf/mc1_separate/001/element.info ...
outputParameter: writing output parameter values to rawfile.

Opening the PSF file ../psf/mc1_separate/001/outputParameter.info ...
designParamVals: writing netlist parameters to rawfile.

Opening the PSFASCII file ../psf/mc1_separate/001/designParamVals.info ...
primitives: writing primitives to rawfile.

Opening the PSFASCII file ../psf/mc1_separate/001/primitives.info.primitives ...
subckts: writing subcircuits to rawfile.

Opening the PSFASCII file ../psf/mc1_separate/001/subckts.info.subckts ...
2              0.50% 

************************************************
Transient Analysis `tran': time = (0 s -> 20 ns)
************************************************

Opening the PSF file ../psf/mc1_separate/002/tran.tran.tran ...

Notice from spectre during IC analysis, during transient analysis `tran', during Monte Carlo analysis `mc1'.
    GminDC = 1 pS is large enough to noticeably affect the DC solution.
        dV(I0.net3) = 6.0473 mV
        Use the `gmin_check' option to eliminate or expand this report.
Warning from spectre during check, during IC analysis, during transient analysis `tran', during Monte Carlo analysis `mc1'.
    WARNING (CMI-2943): Parameter checks have been ignored because the valid value for parameter 'trise' could not be found in 'C0'.

DC simulation time: CPU = 330 us, elapsed = 329.971 us.
Important parameter values:
    start = 0 s
    outputstart = 0 s
    stop = 20 ns
    step = 20 ps
    maxstep = 200 ps
    ic = all
    useprevic = no
    skipdc = no
    reltol = 10e-06
    abstol(V) = 1 uV
    abstol(I) = 1 pA
    temp = 27 C
    tnom = 27 C
    tempeffects = all
    errpreset = conservative
    method = gear2only
    lteratio = 10
    relref = alllocal
    cmin = 0 F
    gmin = 1 pS
    rabsshort = 1 mOhm


Notice from spectre during transient analysis `tran', during Monte Carlo analysis `mc1'.
    Multithreading is disabled due to the size of the design being too small.


Output and IC/nodeset summary:
                 save   5       (current)
                 save   17      (voltage)

    tran: time = 537.3 ps    (2.69 %), step = 41.32 ps     (207 m%)
    tran: time = 1.512 ns    (7.56 %), step = 25.8 ps      (129 m%)
    tran: time = 2.513 ns    (12.6 %), step = 32.6 ps      (163 m%)
    tran: time = 3.51 ns     (17.5 %), step = 33.38 ps     (167 m%)
    tran: time = 4.522 ns    (22.6 %), step = 25.56 ps     (128 m%)
    tran: time = 5.505 ns    (27.5 %), step = 21.54 ps     (108 m%)
SOAC: I0.MND.soac_m1       modn V(B,PSUB): LEAVING@  0.00500265us ;
SOAC: I0.MNA.soac_m1       modn V(B,PSUB): LEAVING@  0.00500696us ;
SOAC: I0.MNA.soac_m1       modn V(B,PSUB): ENTERING@ 0.00619555us duration:0.00119us ;
SOAC: I0.MND.soac_m1       modn V(B,PSUB): ENTERING@ 0.00619568us duration:0.00119us ;
    tran: time = 6.503 ns    (32.5 %), step = 13.01 ps      (65 m%)
    tran: time = 7.502 ns    (37.5 %), step = 18.03 ps    (90.2 m%)
    tran: time = 8.511 ns    (42.6 %), step = 16.56 ps    (82.8 m%)
    tran: time = 9.502 ns    (47.5 %), step = 19.64 ps    (98.2 m%)
SOAC: I0.MND.soac_m1       modn V(B,PSUB): LEAVING@  0.00900229us ;
SOAC: I0.MNA.soac_m1       modn V(B,PSUB): LEAVING@  0.00900654us ;
SOAC: I0.MNA.soac_m1       modn V(B,PSUB): ENTERING@ 0.0101623us duration:0.00116us ;
SOAC: I0.MND.soac_m1       modn V(B,PSUB): ENTERING@ 0.0101904us duration:0.00119us ;
    tran: time = 10.5 ns     (52.5 %), step = 12.85 ps    (64.2 m%)
SOAC: I0.MND.soac_m1       modn V(B,PSUB): LEAVING@  0.010236us ;
    tran: time = 11.51 ns    (57.6 %), step = 15.5 ps     (77.5 m%)
SOAC: I0.MND.soac_m1       modn V(B,PSUB): ENTERING@ 0.0115427us duration:0.00131us ;
    tran: time = 12.5 ns     (62.5 %), step = 14.33 ps    (71.6 m%)
SOAC: I0.MND.soac_m1       modn V(B,PSUB): LEAVING@  0.0122825us ;
    tran: time = 13.51 ns    (67.5 %), step = 27.1 ps      (136 m%)
    tran: time = 14.52 ns    (72.6 %), step = 38.93 ps     (195 m%)
    tran: time = 15.51 ns    (77.6 %), step = 16.79 ps    (83.9 m%)
SOAC: I0.MND.soac_m1       modn V(B,PSUB): ENTERING@ 0.0155571us duration:0.00327us ;
SOAC: I0.MNA.soac_m1       modn V(B,PSUB): LEAVING@  0.0150528us ;
SOAC: I0.MNA.soac_m1       modn V(B,PSUB): ENTERING@ 0.0160544us duration:0.001us ;
    tran: time = 16.5 ns     (82.5 %), step = 14.4 ps       (72 m%)
SOAC: I0.MND.soac_m1       modn V(B,PSUB): LEAVING@  0.0162825us ;
    tran: time = 17.51 ns    (87.6 %), step = 27.14 ps     (136 m%)
    tran: time = 18.52 ns    (92.6 %), step = 38.93 ps     (195 m%)
    tran: time = 19.51 ns    (97.6 %), step = 16.79 ps    (83.9 m%)
SOAC: I0.MND.soac_m1       modn V(B,PSUB): ENTERING@ 0.0195571us duration:0.00327us ;
Number of accepted tran steps =             2536

Maximum value achieved for any signal of each quantity: 
V: V(I0.net1) = 3.63 V
I: I(V:p) = 254 uA

~~~~~~~~~~~~~~~~~~~~~~~~~~~~~~~~~
Post-Transient Simulation Summary
~~~~~~~~~~~~~~~~~~~~~~~~~~~~~~~~~
   -   To further speed up simulation, consider
          add ++aps on command line
   -   Non-default settings that could significantly slow down simulation
          errpreset = conservative, default moderate
          reltol = 10e-06, default 100e-06 (conservative)
~~~~~~~~~~~~~~~~~~~~~~~~~~~~~~~~~


During simulation, the CPU load for active processors is :
         0 (3.0 %)       1 (1.5 %)       3 (1.5 %)       4 (27.5 %)
         5 (1.5 %)       6 (2.3 %)       7 (1.5 %)       9 (31.6 %)
        10 (7.6 %)      11 (1.5 %)      
        Total: 81.1%
Initial condition solution time: CPU = 346 us, elapsed = 346.899 us.
Intrinsic tran analysis time:    CPU = 255.042 ms, elapsed = 265.245 ms.
Total time required for tran analysis `tran': CPU = 256.563 ms, elapsed = 274.907 ms, util. = 93.3%.
Time accumulated: CPU = 725.101 ms, elapsed = 1.34961 s.
Peak resident memory used = 193 Mbytes.

finalTimeOP: writing operating point information to rawfile.

Opening the PSF file ../psf/mc1_separate/002/finalTimeOP.info ...
modelParameter: writing model parameter values to rawfile.

Opening the PSF file ../psf/mc1_separate/002/modelParameter.info ...
element: writing instance parameter values to rawfile.

Opening the PSF file ../psf/mc1_separate/002/element.info ...
outputParameter: writing output parameter values to rawfile.

Opening the PSF file ../psf/mc1_separate/002/outputParameter.info ...
designParamVals: writing netlist parameters to rawfile.

Opening the PSFASCII file ../psf/mc1_separate/002/designParamVals.info ...
primitives: writing primitives to rawfile.

Opening the PSFASCII file ../psf/mc1_separate/002/primitives.info.primitives ...
subckts: writing subcircuits to rawfile.

Opening the PSFASCII file ../psf/mc1_separate/002/subckts.info.subckts ...
3              1.01% 

************************************************
Transient Analysis `tran': time = (0 s -> 20 ns)
************************************************

Opening the PSF file ../psf/mc1_separate/003/tran.tran.tran ...

Notice from spectre during IC analysis, during transient analysis `tran', during Monte Carlo analysis `mc1'.
    GminDC = 1 pS is large enough to noticeably affect the DC solution.
        dV(I0.net2) = 5.25814 mV
        Use the `gmin_check' option to eliminate or expand this report.
Warning from spectre during check, during IC analysis, during transient analysis `tran', during Monte Carlo analysis `mc1'.
    WARNING (CMI-2943): Parameter checks have been ignored because the valid value for parameter 'trise' could not be found in 'C0'.

DC simulation time: CPU = 341 us, elapsed = 344.992 us.
Important parameter values:
    start = 0 s
    outputstart = 0 s
    stop = 20 ns
    step = 20 ps
    maxstep = 200 ps
    ic = all
    useprevic = no
    skipdc = no
    reltol = 10e-06
    abstol(V) = 1 uV
    abstol(I) = 1 pA
    temp = 27 C
    tnom = 27 C
    tempeffects = all
    errpreset = conservative
    method = gear2only
    lteratio = 10
    relref = alllocal
    cmin = 0 F
    gmin = 1 pS
    rabsshort = 1 mOhm


Notice from spectre during transient analysis `tran', during Monte Carlo analysis `mc1'.
    Multithreading is disabled due to the size of the design being too small.


Output and IC/nodeset summary:
                 save   5       (current)
                 save   17      (voltage)

    tran: time = 501.5 ps    (2.51 %), step = 49.4 ps      (247 m%)
    tran: time = 1.509 ns    (7.54 %), step = 25.6 ps      (128 m%)
    tran: time = 2.514 ns    (12.6 %), step = 33.4 ps      (167 m%)
    tran: time = 3.514 ns    (17.6 %), step = 34.45 ps     (172 m%)
    tran: time = 4.504 ns    (22.5 %), step = 20.4 ps      (102 m%)
    tran: time = 5.502 ns    (27.5 %), step = 16.05 ps    (80.3 m%)
SOAC: I0.MND.soac_m1       modn V(B,PSUB): LEAVING@  0.00500266us ;
SOAC: I0.MNA.soac_m1       modn V(B,PSUB): LEAVING@  0.00500701us ;
SOAC: I0.MNA.soac_m1       modn V(B,PSUB): ENTERING@ 0.00619668us duration:0.00119us ;
SOAC: I0.MND.soac_m1       modn V(B,PSUB): ENTERING@ 0.00619691us duration:0.00119us ;
    tran: time = 6.512 ns    (32.6 %), step = 13.5 ps     (67.5 m%)
    tran: time = 7.503 ns    (37.5 %), step = 17.81 ps    (89.1 m%)
    tran: time = 8.5 ns      (42.5 %), step = 5.481 ps    (27.4 m%)
    tran: time = 9.51 ns     (47.6 %), step = 20.18 ps     (101 m%)
SOAC: I0.MND.soac_m1       modn V(B,PSUB): LEAVING@  0.00900227us ;
SOAC: I0.MNA.soac_m1       modn V(B,PSUB): LEAVING@  0.00900655us ;
SOAC: I0.MNA.soac_m1       modn V(B,PSUB): ENTERING@ 0.0101624us duration:0.00116us ;
SOAC: I0.MND.soac_m1       modn V(B,PSUB): ENTERING@ 0.0101969us duration:0.00119us ;
    tran: time = 10.51 ns    (52.5 %), step = 13.16 ps    (65.8 m%)
SOAC: I0.MND.soac_m1       modn V(B,PSUB): LEAVING@  0.0102069us ;
    tran: time = 11.51 ns    (57.5 %), step = 17.07 ps    (85.3 m%)
SOAC: I0.MND.soac_m1       modn V(B,PSUB): ENTERING@ 0.011544us duration:0.00134us ;
    tran: time = 12.5 ns     (62.5 %), step = 14.42 ps    (72.1 m%)
SOAC: I0.MND.soac_m1       modn V(B,PSUB): LEAVING@  0.0122877us ;
    tran: time = 13.52 ns    (67.6 %), step = 27.33 ps     (137 m%)
    tran: time = 14.5 ns     (72.5 %), step = 21.94 ps     (110 m%)
    tran: time = 15.52 ns    (77.6 %), step = 16.92 ps    (84.6 m%)
SOAC: I0.MND.soac_m1       modn V(B,PSUB): ENTERING@ 0.0155594us duration:0.00327us ;
SOAC: I0.MNA.soac_m1       modn V(B,PSUB): LEAVING@  0.0150536us ;
SOAC: I0.MNA.soac_m1       modn V(B,PSUB): ENTERING@ 0.0160541us duration:0.001us ;
    tran: time = 16.5 ns     (82.5 %), step = 14.49 ps    (72.5 m%)
SOAC: I0.MND.soac_m1       modn V(B,PSUB): LEAVING@  0.0162877us ;
    tran: time = 17.52 ns    (87.6 %), step = 27.33 ps     (137 m%)
    tran: time = 18.5 ns     (92.5 %), step = 22 ps        (110 m%)
    tran: time = 19.52 ns    (97.6 %), step = 16.92 ps    (84.6 m%)
SOAC: I0.MND.soac_m1       modn V(B,PSUB): ENTERING@ 0.0195594us duration:0.00327us ;
Number of accepted tran steps =             2546

Maximum value achieved for any signal of each quantity: 
V: V(I0.net1) = 3.63 V
I: I(V:p) = 248.2 uA

~~~~~~~~~~~~~~~~~~~~~~~~~~~~~~~~~
Post-Transient Simulation Summary
~~~~~~~~~~~~~~~~~~~~~~~~~~~~~~~~~
   -   To further speed up simulation, consider
          add ++aps on command line
   -   Non-default settings that could significantly slow down simulation
          errpreset = conservative, default moderate
          reltol = 10e-06, default 100e-06 (conservative)
~~~~~~~~~~~~~~~~~~~~~~~~~~~~~~~~~


During simulation, the CPU load for active processors is :
         0 (2.5 %)       1 (1.2 %)       3 (1.2 %)       4 (38.3 %)
         5 (1.2 %)       6 (1.9 %)       7 (1.2 %)       9 (25.8 %)
        10 (6.2 %)      11 (1.2 %)      
        Total: 82.0%
Initial condition solution time: CPU = 359 us, elapsed = 362.158 us.
Intrinsic tran analysis time:    CPU = 241.492 ms, elapsed = 249.966 ms.
Total time required for tran analysis `tran': CPU = 243.001 ms, elapsed = 259.329 ms, util. = 93.7%.
Time accumulated: CPU = 980.177 ms, elapsed = 1.65108 s.
Peak resident memory used = 193 Mbytes.

finalTimeOP: writing operating point information to rawfile.

Opening the PSF file ../psf/mc1_separate/003/finalTimeOP.info ...
modelParameter: writing model parameter values to rawfile.

Opening the PSF file ../psf/mc1_separate/003/modelParameter.info ...
element: writing instance parameter values to rawfile.

Opening the PSF file ../psf/mc1_separate/003/element.info ...
outputParameter: writing output parameter values to rawfile.

Opening the PSF file ../psf/mc1_separate/003/outputParameter.info ...
designParamVals: writing netlist parameters to rawfile.

Opening the PSFASCII file ../psf/mc1_separate/003/designParamVals.info ...
primitives: writing primitives to rawfile.

Opening the PSFASCII file ../psf/mc1_separate/003/primitives.info.primitives ...
subckts: writing subcircuits to rawfile.

Opening the PSFASCII file ../psf/mc1_separate/003/subckts.info.subckts ...
4              1.51% 

************************************************
Transient Analysis `tran': time = (0 s -> 20 ns)
************************************************

Opening the PSF file ../psf/mc1_separate/004/tran.tran.tran ...

Notice from spectre during IC analysis, during transient analysis `tran', during Monte Carlo analysis `mc1'.
    GminDC = 1 pS is large enough to noticeably affect the DC solution.
        dV(I0.net2) = 4.3443 mV
        Use the `gmin_check' option to eliminate or expand this report.
Warning from spectre during check, during IC analysis, during transient analysis `tran', during Monte Carlo analysis `mc1'.
    WARNING (CMI-2943): Parameter checks have been ignored because the valid value for parameter 'trise' could not be found in 'C0'.

DC simulation time: CPU = 335 us, elapsed = 334.024 us.
Important parameter values:
    start = 0 s
    outputstart = 0 s
    stop = 20 ns
    step = 20 ps
    maxstep = 200 ps
    ic = all
    useprevic = no
    skipdc = no
    reltol = 10e-06
    abstol(V) = 1 uV
    abstol(I) = 1 pA
    temp = 27 C
    tnom = 27 C
    tempeffects = all
    errpreset = conservative
    method = gear2only
    lteratio = 10
    relref = alllocal
    cmin = 0 F
    gmin = 1 pS
    rabsshort = 1 mOhm


Notice from spectre during transient analysis `tran', during Monte Carlo analysis `mc1'.
    Multithreading is disabled due to the size of the design being too small.


Output and IC/nodeset summary:
                 save   5       (current)
                 save   17      (voltage)

    tran: time = 500 ps       (2.5 %), step = 47.44 ps     (237 m%)
    tran: time = 1.516 ns    (7.58 %), step = 26.28 ps     (131 m%)
    tran: time = 2.513 ns    (12.6 %), step = 33.22 ps     (166 m%)
    tran: time = 3.509 ns    (17.5 %), step = 33.39 ps     (167 m%)
    tran: time = 4.508 ns    (22.5 %), step = 20.57 ps     (103 m%)
    tran: time = 5.5 ns      (27.5 %), step = 16.04 ps    (80.2 m%)
SOAC: I0.MND.soac_m1       modn V(B,PSUB): LEAVING@  0.00500266us ;
SOAC: I0.MNA.soac_m1       modn V(B,PSUB): LEAVING@  0.00500702us ;
SOAC: I0.MNA.soac_m1       modn V(B,PSUB): ENTERING@ 0.00619597us duration:0.00119us ;
SOAC: I0.MND.soac_m1       modn V(B,PSUB): ENTERING@ 0.00619623us duration:0.00119us ;
    tran: time = 6.504 ns    (32.5 %), step = 13.35 ps    (66.7 m%)
    tran: time = 7.503 ns    (37.5 %), step = 18.13 ps    (90.6 m%)
    tran: time = 8.513 ns    (42.6 %), step = 16.44 ps    (82.2 m%)
    tran: time = 9.508 ns    (47.5 %), step = 20.16 ps     (101 m%)
SOAC: I0.MND.soac_m1       modn V(B,PSUB): LEAVING@  0.00900227us ;
SOAC: I0.MNA.soac_m1       modn V(B,PSUB): LEAVING@  0.00900656us ;
SOAC: I0.MNA.soac_m1       modn V(B,PSUB): ENTERING@ 0.0101621us duration:0.00116us ;
SOAC: I0.MND.soac_m1       modn V(B,PSUB): ENTERING@ 0.0101945us duration:0.00119us ;
    tran: time = 10.5 ns     (52.5 %), step = 12.78 ps    (63.9 m%)
SOAC: I0.MND.soac_m1       modn V(B,PSUB): LEAVING@  0.0102145us ;
    tran: time = 11.51 ns    (57.6 %), step = 15.61 ps      (78 m%)
SOAC: I0.MND.soac_m1       modn V(B,PSUB): ENTERING@ 0.011544us duration:0.00133us ;
    tran: time = 12.51 ns    (62.6 %), step = 14.61 ps      (73 m%)
SOAC: I0.MND.soac_m1       modn V(B,PSUB): LEAVING@  0.0122859us ;
    tran: time = 13.51 ns    (67.6 %), step = 27.02 ps     (135 m%)
    tran: time = 14.52 ns    (72.6 %), step = 23.1 ps      (115 m%)
    tran: time = 15.5 ns     (77.5 %), step = 15.9 ps     (79.5 m%)
SOAC: I0.MND.soac_m1       modn V(B,PSUB): ENTERING@ 0.0155589us duration:0.00327us ;
SOAC: I0.MNA.soac_m1       modn V(B,PSUB): LEAVING@  0.0150533us ;
SOAC: I0.MNA.soac_m1       modn V(B,PSUB): ENTERING@ 0.0160542us duration:0.001us ;
    tran: time = 16.51 ns    (82.6 %), step = 14.76 ps    (73.8 m%)
SOAC: I0.MND.soac_m1       modn V(B,PSUB): LEAVING@  0.0162859us ;
    tran: time = 17.52 ns    (87.6 %), step = 27.26 ps     (136 m%)
    tran: time = 18.52 ns    (92.6 %), step = 23.07 ps     (115 m%)
    tran: time = 19.5 ns     (97.5 %), step = 15.9 ps     (79.5 m%)
SOAC: I0.MND.soac_m1       modn V(B,PSUB): ENTERING@ 0.0195589us duration:0.00327us ;
Number of accepted tran steps =             2536

Maximum value achieved for any signal of each quantity: 
V: V(I0.net1) = 3.63 V
I: I(V:p) = 249.9 uA

~~~~~~~~~~~~~~~~~~~~~~~~~~~~~~~~~
Post-Transient Simulation Summary
~~~~~~~~~~~~~~~~~~~~~~~~~~~~~~~~~
   -   To further speed up simulation, consider
          add ++aps on command line
   -   Non-default settings that could significantly slow down simulation
          errpreset = conservative, default moderate
          reltol = 10e-06, default 100e-06 (conservative)
~~~~~~~~~~~~~~~~~~~~~~~~~~~~~~~~~


During simulation, the CPU load for active processors is :
         0 (2.6 %)       1 (2.1 %)       2 (1.6 %)       3 (1.5 %)
         4 (46.4 %)      5 (1.5 %)       6 (2.1 %)       7 (4.1 %)
         8 (1.5 %)       9 (22.2 %)     10 (5.7 %)      11 (2.1 %)
        Total: 93.3%
Initial condition solution time: CPU = 350 us, elapsed = 350.952 us.
Intrinsic tran analysis time:    CPU = 256.196 ms, elapsed = 265.925 ms.
Total time required for tran analysis `tran': CPU = 257.713 ms, elapsed = 275.081 ms, util. = 93.7%.
Time accumulated: CPU = 1.2514 s, elapsed = 1.96841 s.
Peak resident memory used = 193 Mbytes.

finalTimeOP: writing operating point information to rawfile.

Opening the PSF file ../psf/mc1_separate/004/finalTimeOP.info ...
modelParameter: writing model parameter values to rawfile.

Opening the PSF file ../psf/mc1_separate/004/modelParameter.info ...
element: writing instance parameter values to rawfile.

Opening the PSF file ../psf/mc1_separate/004/element.info ...
outputParameter: writing output parameter values to rawfile.

Opening the PSF file ../psf/mc1_separate/004/outputParameter.info ...
designParamVals: writing netlist parameters to rawfile.

Opening the PSFASCII file ../psf/mc1_separate/004/designParamVals.info ...
primitives: writing primitives to rawfile.

Opening the PSFASCII file ../psf/mc1_separate/004/primitives.info.primitives ...
subckts: writing subcircuits to rawfile.

Opening the PSFASCII file ../psf/mc1_separate/004/subckts.info.subckts ...
5              2.01% 

************************************************
Transient Analysis `tran': time = (0 s -> 20 ns)
************************************************

Opening the PSF file ../psf/mc1_separate/005/tran.tran.tran ...

Notice from spectre during IC analysis, during transient analysis `tran', during Monte Carlo analysis `mc1'.
    GminDC = 1 pS is large enough to noticeably affect the DC solution.
        dV(I0.net2) = 5.43868 mV
        Use the `gmin_check' option to eliminate or expand this report.
Warning from spectre during check, during IC analysis, during transient analysis `tran', during Monte Carlo analysis `mc1'.
    WARNING (CMI-2943): Parameter checks have been ignored because the valid value for parameter 'trise' could not be found in 'C0'.

DC simulation time: CPU = 641 us, elapsed = 643.969 us.
Important parameter values:
    start = 0 s
    outputstart = 0 s
    stop = 20 ns
    step = 20 ps
    maxstep = 200 ps
    ic = all
    useprevic = no
    skipdc = no
    reltol = 10e-06
    abstol(V) = 1 uV
    abstol(I) = 1 pA
    temp = 27 C
    tnom = 27 C
    tempeffects = all
    errpreset = conservative
    method = gear2only
    lteratio = 10
    relref = alllocal
    cmin = 0 F
    gmin = 1 pS
    rabsshort = 1 mOhm


Notice from spectre during transient analysis `tran', during Monte Carlo analysis `mc1'.
    Multithreading is disabled due to the size of the design being too small.


Output and IC/nodeset summary:
                 save   5       (current)
                 save   17      (voltage)

    tran: time = 536.4 ps    (2.68 %), step = 43.02 ps     (215 m%)
    tran: time = 1.505 ns    (7.52 %), step = 25.14 ps     (126 m%)
    tran: time = 2.512 ns    (12.6 %), step = 32.97 ps     (165 m%)
    tran: time = 3.512 ns    (17.6 %), step = 34.75 ps     (174 m%)
    tran: time = 4.524 ns    (22.6 %), step = 25.84 ps     (129 m%)
    tran: time = 5.506 ns    (27.5 %), step = 16.71 ps    (83.5 m%)
SOAC: I0.MND.soac_m1       modn V(B,PSUB): LEAVING@  0.00500268us ;
SOAC: I0.MNA.soac_m1       modn V(B,PSUB): LEAVING@  0.00500703us ;
SOAC: I0.MNA.soac_m1       modn V(B,PSUB): ENTERING@ 0.0061967us duration:0.00119us ;
SOAC: I0.MND.soac_m1       modn V(B,PSUB): ENTERING@ 0.00619688us duration:0.00119us ;
    tran: time = 6.504 ns    (32.5 %), step = 12.97 ps    (64.8 m%)
    tran: time = 7.504 ns    (37.5 %), step = 17.61 ps      (88 m%)
    tran: time = 8.508 ns    (42.5 %), step = 12.15 ps    (60.8 m%)
    tran: time = 9.515 ns    (47.6 %), step = 21.73 ps     (109 m%)
SOAC: I0.MND.soac_m1       modn V(B,PSUB): LEAVING@  0.00900232us ;
SOAC: I0.MNA.soac_m1       modn V(B,PSUB): LEAVING@  0.00900661us ;
SOAC: I0.MNA.soac_m1       modn V(B,PSUB): ENTERING@ 0.0101629us duration:0.00116us ;
SOAC: I0.MND.soac_m1       modn V(B,PSUB): ENTERING@ 0.0101952us duration:0.00119us ;
    tran: time = 10.51 ns    (52.6 %), step = 13.62 ps    (68.1 m%)
SOAC: I0.MND.soac_m1       modn V(B,PSUB): LEAVING@  0.0102119us ;
    tran: time = 11.51 ns    (57.5 %), step = 17.07 ps    (85.4 m%)
SOAC: I0.MND.soac_m1       modn V(B,PSUB): ENTERING@ 0.011544us duration:0.00133us ;
    tran: time = 12.51 ns    (62.6 %), step = 14.61 ps    (73.1 m%)
SOAC: I0.MND.soac_m1       modn V(B,PSUB): LEAVING@  0.0122853us ;
    tran: time = 13.51 ns    (67.6 %), step = 27.34 ps     (137 m%)
    tran: time = 14.52 ns    (72.6 %), step = 23.13 ps     (116 m%)
    tran: time = 15.51 ns    (77.5 %), step = 16.49 ps    (82.4 m%)
SOAC: I0.MND.soac_m1       modn V(B,PSUB): ENTERING@ 0.01556us duration:0.00327us ;
    tran: time = 16.51 ns    (82.6 %), step = 14.7 ps     (73.5 m%)
SOAC: I0.MND.soac_m1       modn V(B,PSUB): LEAVING@  0.0162853us ;
    tran: time = 17.51 ns    (87.6 %), step = 27.34 ps     (137 m%)
    tran: time = 18.52 ns    (92.6 %), step = 23.13 ps     (116 m%)
    tran: time = 19.51 ns    (97.5 %), step = 16.49 ps    (82.4 m%)
SOAC: I0.MND.soac_m1       modn V(B,PSUB): ENTERING@ 0.01956us duration:0.00327us ;
Number of accepted tran steps =             2547

Maximum value achieved for any signal of each quantity: 
V: V(I0.net1) = 3.63 V
I: I(V:p) = 251.9 uA

~~~~~~~~~~~~~~~~~~~~~~~~~~~~~~~~~
Post-Transient Simulation Summary
~~~~~~~~~~~~~~~~~~~~~~~~~~~~~~~~~
   -   To further speed up simulation, consider
          add ++aps on command line
   -   Non-default settings that could significantly slow down simulation
          errpreset = conservative, default moderate
          reltol = 10e-06, default 100e-06 (conservative)
~~~~~~~~~~~~~~~~~~~~~~~~~~~~~~~~~


During simulation, the CPU load for active processors is :
         0 (3.9 %)       1 (7.8 %)       2 (3.1 %)       3 (2.2 %)
         4 (40.4 %)      5 (1.7 %)       6 (1.7 %)       7 (17.4 %)
         8 (2.6 %)       9 (19.6 %)     10 (6.1 %)      11 (2.6 %)
        Total: 109.2%
Initial condition solution time: CPU = 667 us, elapsed = 671.148 us.
Intrinsic tran analysis time:    CPU = 302.567 ms, elapsed = 309.811 ms.
Total time required for tran analysis `tran': CPU = 304.569 ms, elapsed = 320.858 ms, util. = 94.9%.
Time accumulated: CPU = 1.56947 s, elapsed = 2.33086 s.
Peak resident memory used = 193 Mbytes.

finalTimeOP: writing operating point information to rawfile.

Opening the PSF file ../psf/mc1_separate/005/finalTimeOP.info ...
modelParameter: writing model parameter values to rawfile.

Opening the PSF file ../psf/mc1_separate/005/modelParameter.info ...
element: writing instance parameter values to rawfile.

Opening the PSF file ../psf/mc1_separate/005/element.info ...
outputParameter: writing output parameter values to rawfile.

Opening the PSF file ../psf/mc1_separate/005/outputParameter.info ...
designParamVals: writing netlist parameters to rawfile.

Opening the PSFASCII file ../psf/mc1_separate/005/designParamVals.info ...
primitives: writing primitives to rawfile.

Opening the PSFASCII file ../psf/mc1_separate/005/primitives.info.primitives ...
subckts: writing subcircuits to rawfile.

Opening the PSFASCII file ../psf/mc1_separate/005/subckts.info.subckts ...
6              2.51% 

************************************************
Transient Analysis `tran': time = (0 s -> 20 ns)
************************************************

Opening the PSF file ../psf/mc1_separate/006/tran.tran.tran ...

Notice from spectre during IC analysis, during transient analysis `tran', during Monte Carlo analysis `mc1'.
    GminDC = 1 pS is large enough to noticeably affect the DC solution.
        dV(I0.net2) = 4.7392 mV
        Use the `gmin_check' option to eliminate or expand this report.
Warning from spectre during check, during IC analysis, during transient analysis `tran', during Monte Carlo analysis `mc1'.
    WARNING (CMI-2943): Parameter checks have been ignored because the valid value for parameter 'trise' could not be found in 'C0'.

DC simulation time: CPU = 392 us, elapsed = 391.96 us.
Important parameter values:
    start = 0 s
    outputstart = 0 s
    stop = 20 ns
    step = 20 ps
    maxstep = 200 ps
    ic = all
    useprevic = no
    skipdc = no
    reltol = 10e-06
    abstol(V) = 1 uV
    abstol(I) = 1 pA
    temp = 27 C
    tnom = 27 C
    tempeffects = all
    errpreset = conservative
    method = gear2only
    lteratio = 10
    relref = alllocal
    cmin = 0 F
    gmin = 1 pS
    rabsshort = 1 mOhm


Notice from spectre during transient analysis `tran', during Monte Carlo analysis `mc1'.
    Multithreading is disabled due to the size of the design being too small.


Output and IC/nodeset summary:
                 save   5       (current)
                 save   17      (voltage)

    tran: time = 502.2 ps    (2.51 %), step = 46.08 ps     (230 m%)
    tran: time = 1.512 ns    (7.56 %), step = 25.75 ps     (129 m%)
    tran: time = 2.513 ns    (12.6 %), step = 32.76 ps     (164 m%)
    tran: time = 3.519 ns    (17.6 %), step = 34.55 ps     (173 m%)
    tran: time = 4.507 ns    (22.5 %), step = 21.47 ps     (107 m%)
    tran: time = 5.502 ns    (27.5 %), step = 16.38 ps    (81.9 m%)
SOAC: I0.MND.soac_m1       modn V(B,PSUB): LEAVING@  0.00500266us ;
SOAC: I0.MNA.soac_m1       modn V(B,PSUB): LEAVING@  0.00500704us ;
SOAC: I0.MNA.soac_m1       modn V(B,PSUB): ENTERING@ 0.00619667us duration:0.00119us ;
SOAC: I0.MND.soac_m1       modn V(B,PSUB): ENTERING@ 0.00619698us duration:0.00119us ;
    tran: time = 6.508 ns    (32.5 %), step = 13.09 ps    (65.4 m%)
    tran: time = 7.503 ns    (37.5 %), step = 17.97 ps    (89.9 m%)
    tran: time = 8.503 ns    (42.5 %), step = 7.614 ps    (38.1 m%)
    tran: time = 9.51 ns     (47.6 %), step = 21.09 ps     (105 m%)
SOAC: I0.MND.soac_m1       modn V(B,PSUB): LEAVING@  0.00900231us ;
SOAC: I0.MNA.soac_m1       modn V(B,PSUB): LEAVING@  0.00900662us ;
SOAC: I0.MNA.soac_m1       modn V(B,PSUB): ENTERING@ 0.0101621us duration:0.00116us ;
SOAC: I0.MND.soac_m1       modn V(B,PSUB): ENTERING@ 0.010198us duration:0.0012us ;
    tran: time = 10.5 ns     (52.5 %), step = 13.07 ps    (65.4 m%)
SOAC: I0.MND.soac_m1       modn V(B,PSUB): LEAVING@  0.0102042us ;
    tran: time = 11.51 ns    (57.6 %), step = 15.78 ps    (78.9 m%)
SOAC: I0.MND.soac_m1       modn V(B,PSUB): ENTERING@ 0.0115442us duration:0.00134us ;
    tran: time = 12.51 ns    (62.6 %), step = 14.55 ps    (72.8 m%)
SOAC: I0.MND.soac_m1       modn V(B,PSUB): LEAVING@  0.0122842us ;
    tran: time = 13.51 ns    (67.6 %), step = 27.14 ps     (136 m%)
    tran: time = 14.52 ns    (72.6 %), step = 23.01 ps     (115 m%)
    tran: time = 15.5 ns     (77.5 %), step = 16.05 ps    (80.2 m%)
SOAC: I0.MND.soac_m1       modn V(B,PSUB): ENTERING@ 0.0155585us duration:0.00327us ;
SOAC: I0.MNA.soac_m1       modn V(B,PSUB): LEAVING@  0.0150535us ;
SOAC: I0.MNA.soac_m1       modn V(B,PSUB): ENTERING@ 0.0160541us duration:0.001us ;
    tran: time = 16.51 ns    (82.6 %), step = 14.63 ps    (73.2 m%)
SOAC: I0.MND.soac_m1       modn V(B,PSUB): LEAVING@  0.0162842us ;
    tran: time = 17.52 ns    (87.6 %), step = 27.41 ps     (137 m%)
    tran: time = 18.52 ns    (92.6 %), step = 23.01 ps     (115 m%)
    tran: time = 19.5 ns     (97.5 %), step = 16.05 ps    (80.2 m%)
SOAC: I0.MND.soac_m1       modn V(B,PSUB): ENTERING@ 0.0195585us duration:0.00327us ;
Number of accepted tran steps =             2536

Maximum value achieved for any signal of each quantity: 
V: V(I0.net1) = 3.63 V
I: I(V:p) = 252.9 uA

~~~~~~~~~~~~~~~~~~~~~~~~~~~~~~~~~
Post-Transient Simulation Summary
~~~~~~~~~~~~~~~~~~~~~~~~~~~~~~~~~
   -   To further speed up simulation, consider
          add ++aps on command line
   -   Non-default settings that could significantly slow down simulation
          errpreset = conservative, default moderate
          reltol = 10e-06, default 100e-06 (conservative)
~~~~~~~~~~~~~~~~~~~~~~~~~~~~~~~~~


During simulation, the CPU load for active processors is :
         0 (12.3 %)      1 (7.6 %)       2 (4.2 %)       3 (1.9 %)
         4 (37.5 %)      5 (1.5 %)       6 (3.1 %)       7 (15.3 %)
         8 (3.8 %)       9 (17.6 %)     10 (5.8 %)      11 (3.5 %)
        Total: 114.2%
Initial condition solution time: CPU = 411 us, elapsed = 411.987 us.
Intrinsic tran analysis time:    CPU = 251.937 ms, elapsed = 259.421 ms.
Total time required for tran analysis `tran': CPU = 253.534 ms, elapsed = 267.997 ms, util. = 94.6%.
Time accumulated: CPU = 1.83869 s, elapsed = 2.63979 s.
Peak resident memory used = 193 Mbytes.

finalTimeOP: writing operating point information to rawfile.

Opening the PSF file ../psf/mc1_separate/006/finalTimeOP.info ...
modelParameter: writing model parameter values to rawfile.

Opening the PSF file ../psf/mc1_separate/006/modelParameter.info ...
element: writing instance parameter values to rawfile.

Opening the PSF file ../psf/mc1_separate/006/element.info ...
outputParameter: writing output parameter values to rawfile.

Opening the PSF file ../psf/mc1_separate/006/outputParameter.info ...
designParamVals: writing netlist parameters to rawfile.

Opening the PSFASCII file ../psf/mc1_separate/006/designParamVals.info ...
primitives: writing primitives to rawfile.

Opening the PSFASCII file ../psf/mc1_separate/006/primitives.info.primitives ...
subckts: writing subcircuits to rawfile.

Opening the PSFASCII file ../psf/mc1_separate/006/subckts.info.subckts ...
    mc1: iteration = 6           (2.51 %), step = 1            (503 m%)
7              3.02% 

************************************************
Transient Analysis `tran': time = (0 s -> 20 ns)
************************************************

Opening the PSF file ../psf/mc1_separate/007/tran.tran.tran ...

Notice from spectre during IC analysis, during transient analysis `tran', during Monte Carlo analysis `mc1'.
    GminDC = 1 pS is large enough to noticeably affect the DC solution.
        dV(I0.net3) = 4.47191 mV
        Use the `gmin_check' option to eliminate or expand this report.
Warning from spectre during check, during IC analysis, during transient analysis `tran', during Monte Carlo analysis `mc1'.
    WARNING (CMI-2943): Parameter checks have been ignored because the valid value for parameter 'trise' could not be found in 'C0'.

DC simulation time: CPU = 346 us, elapsed = 347.853 us.
Important parameter values:
    start = 0 s
    outputstart = 0 s
    stop = 20 ns
    step = 20 ps
    maxstep = 200 ps
    ic = all
    useprevic = no
    skipdc = no
    reltol = 10e-06
    abstol(V) = 1 uV
    abstol(I) = 1 pA
    temp = 27 C
    tnom = 27 C
    tempeffects = all
    errpreset = conservative
    method = gear2only
    lteratio = 10
    relref = alllocal
    cmin = 0 F
    gmin = 1 pS
    rabsshort = 1 mOhm


Notice from spectre during transient analysis `tran', during Monte Carlo analysis `mc1'.
    Multithreading is disabled due to the size of the design being too small.


Output and IC/nodeset summary:
                 save   5       (current)
                 save   17      (voltage)

    tran: time = 508 ps      (2.54 %), step = 43.94 ps     (220 m%)
    tran: time = 1.52 ns      (7.6 %), step = 26.56 ps     (133 m%)
    tran: time = 2.511 ns    (12.6 %), step = 32.29 ps     (161 m%)
    tran: time = 3.517 ns    (17.6 %), step = 33.62 ps     (168 m%)
    tran: time = 4.525 ns    (22.6 %), step = 25.61 ps     (128 m%)
    tran: time = 5.521 ns    (27.6 %), step = 22.26 ps     (111 m%)
SOAC: I0.MND.soac_m1       modn V(B,PSUB): LEAVING@  0.00500266us ;
SOAC: I0.MNA.soac_m1       modn V(B,PSUB): LEAVING@  0.00500697us ;
SOAC: I0.MNA.soac_m1       modn V(B,PSUB): ENTERING@ 0.00619677us duration:0.00119us ;
SOAC: I0.MND.soac_m1       modn V(B,PSUB): ENTERING@ 0.00619682us duration:0.00119us ;
    tran: time = 6.511 ns    (32.6 %), step = 13.37 ps    (66.8 m%)
    tran: time = 7.513 ns    (37.6 %), step = 13.57 ps    (67.8 m%)
    tran: time = 8.511 ns    (42.6 %), step = 16.81 ps    (84.1 m%)
    tran: time = 9.505 ns    (47.5 %), step = 19.64 ps    (98.2 m%)
SOAC: I0.MND.soac_m1       modn V(B,PSUB): LEAVING@  0.00900232us ;
SOAC: I0.MNA.soac_m1       modn V(B,PSUB): LEAVING@  0.0090065us ;
SOAC: I0.MNA.soac_m1       modn V(B,PSUB): ENTERING@ 0.0101626us duration:0.00116us ;
SOAC: I0.MND.soac_m1       modn V(B,PSUB): ENTERING@ 0.0101942us duration:0.00119us ;
    tran: time = 10.5 ns     (52.5 %), step = 13.3 ps     (66.5 m%)
SOAC: I0.MND.soac_m1       modn V(B,PSUB): LEAVING@  0.0102158us ;
    tran: time = 11.51 ns    (57.6 %), step = 14.3 ps     (71.5 m%)
SOAC: I0.MND.soac_m1       modn V(B,PSUB): ENTERING@ 0.0115398us duration:0.00132us ;
    tran: time = 12.51 ns    (62.5 %), step = 14.48 ps    (72.4 m%)
SOAC: I0.MND.soac_m1       modn V(B,PSUB): LEAVING@  0.0122804us ;
    tran: time = 13.51 ns    (67.5 %), step = 26.98 ps     (135 m%)
    tran: time = 14.52 ns    (72.6 %), step = 23.4 ps      (117 m%)
    tran: time = 15.52 ns    (77.6 %), step = 16.86 ps    (84.3 m%)
SOAC: I0.MND.soac_m1       modn V(B,PSUB): ENTERING@ 0.0155534us duration:0.00327us ;
SOAC: I0.MNA.soac_m1       modn V(B,PSUB): LEAVING@  0.015053us ;
SOAC: I0.MNA.soac_m1       modn V(B,PSUB): ENTERING@ 0.016055us duration:0.001us ;
    tran: time = 16.51 ns    (82.5 %), step = 14.55 ps    (72.8 m%)
SOAC: I0.MND.soac_m1       modn V(B,PSUB): LEAVING@  0.0162804us ;
    tran: time = 17.5 ns     (87.5 %), step = 26.9 ps      (134 m%)
    tran: time = 18.52 ns    (92.6 %), step = 23.52 ps     (118 m%)
    tran: time = 19.52 ns    (97.6 %), step = 16.85 ps    (84.3 m%)
SOAC: I0.MND.soac_m1       modn V(B,PSUB): ENTERING@ 0.0195534us duration:0.00327us ;
Number of accepted tran steps =             2532

Maximum value achieved for any signal of each quantity: 
V: V(I0.net1) = 3.629 V
I: I(V:p) = 256.5 uA

~~~~~~~~~~~~~~~~~~~~~~~~~~~~~~~~~
Post-Transient Simulation Summary
~~~~~~~~~~~~~~~~~~~~~~~~~~~~~~~~~
   -   To further speed up simulation, consider
          add ++aps on command line
   -   Non-default settings that could significantly slow down simulation
          errpreset = conservative, default moderate
          reltol = 10e-06, default 100e-06 (conservative)
~~~~~~~~~~~~~~~~~~~~~~~~~~~~~~~~~


During simulation, the CPU load for active processors is :
         0 (11.0 %)      1 (6.9 %)       2 (3.8 %)       3 (1.7 %)
         4 (33.8 %)      5 (1.4 %)       6 (2.8 %)       7 (14.5 %)
         8 (11.4 %)      9 (15.9 %)     10 (5.2 %)      11 (3.1 %)
        Total: 111.4%
Initial condition solution time: CPU = 362 us, elapsed = 365.973 us.
Intrinsic tran analysis time:    CPU = 237.929 ms, elapsed = 246.452 ms.
Total time required for tran analysis `tran': CPU = 239.541 ms, elapsed = 255.975 ms, util. = 93.6%.
Time accumulated: CPU = 2.08986 s, elapsed = 2.93565 s.
Peak resident memory used = 193 Mbytes.

finalTimeOP: writing operating point information to rawfile.

Opening the PSF file ../psf/mc1_separate/007/finalTimeOP.info ...
modelParameter: writing model parameter values to rawfile.

Opening the PSF file ../psf/mc1_separate/007/modelParameter.info ...
element: writing instance parameter values to rawfile.

Opening the PSF file ../psf/mc1_separate/007/element.info ...
outputParameter: writing output parameter values to rawfile.

Opening the PSF file ../psf/mc1_separate/007/outputParameter.info ...
designParamVals: writing netlist parameters to rawfile.

Opening the PSFASCII file ../psf/mc1_separate/007/designParamVals.info ...
primitives: writing primitives to rawfile.

Opening the PSFASCII file ../psf/mc1_separate/007/primitives.info.primitives ...
subckts: writing subcircuits to rawfile.

Opening the PSFASCII file ../psf/mc1_separate/007/subckts.info.subckts ...
    mc1: iteration = 7           (3.02 %), step = 1            (503 m%)
8              3.52% 

************************************************
Transient Analysis `tran': time = (0 s -> 20 ns)
************************************************

Opening the PSF file ../psf/mc1_separate/008/tran.tran.tran ...

Notice from spectre during IC analysis, during transient analysis `tran', during Monte Carlo analysis `mc1'.
    GminDC = 1 pS is large enough to noticeably affect the DC solution.
        dV(I0.net2) = 6.39174 mV
        Use the `gmin_check' option to eliminate or expand this report.
Warning from spectre during check, during IC analysis, during transient analysis `tran', during Monte Carlo analysis `mc1'.
    WARNING (CMI-2943): Parameter checks have been ignored because the valid value for parameter 'trise' could not be found in 'C0'.

DC simulation time: CPU = 380 us, elapsed = 380.039 us.
Important parameter values:
    start = 0 s
    outputstart = 0 s
    stop = 20 ns
    step = 20 ps
    maxstep = 200 ps
    ic = all
    useprevic = no
    skipdc = no
    reltol = 10e-06
    abstol(V) = 1 uV
    abstol(I) = 1 pA
    temp = 27 C
    tnom = 27 C
    tempeffects = all
    errpreset = conservative
    method = gear2only
    lteratio = 10
    relref = alllocal
    cmin = 0 F
    gmin = 1 pS
    rabsshort = 1 mOhm


Notice from spectre during transient analysis `tran', during Monte Carlo analysis `mc1'.
    Multithreading is disabled due to the size of the design being too small.


Output and IC/nodeset summary:
                 save   5       (current)
                 save   17      (voltage)

    tran: time = 535.6 ps    (2.68 %), step = 40.63 ps     (203 m%)
    tran: time = 1.505 ns    (7.52 %), step = 24.95 ps     (125 m%)
    tran: time = 2.506 ns    (12.5 %), step = 32.17 ps     (161 m%)
    tran: time = 3.51 ns     (17.6 %), step = 33.83 ps     (169 m%)
    tran: time = 4.503 ns    (22.5 %), step = 24.56 ps     (123 m%)
    tran: time = 5.518 ns    (27.6 %), step = 21.96 ps     (110 m%)
SOAC: I0.MND.soac_m1       modn V(B,PSUB): LEAVING@  0.00500266us ;
SOAC: I0.MNA.soac_m1       modn V(B,PSUB): LEAVING@  0.005007us ;
SOAC: I0.MNA.soac_m1       modn V(B,PSUB): ENTERING@ 0.00619602us duration:0.00119us ;
SOAC: I0.MND.soac_m1       modn V(B,PSUB): ENTERING@ 0.00619621us duration:0.00119us ;
    tran: time = 6.503 ns    (32.5 %), step = 13.09 ps    (65.5 m%)
    tran: time = 7.504 ns    (37.5 %), step = 18.06 ps    (90.3 m%)
    tran: time = 8.509 ns    (42.5 %), step = 16.28 ps    (81.4 m%)
    tran: time = 9.504 ns    (47.5 %), step = 19.48 ps    (97.4 m%)
SOAC: I0.MND.soac_m1       modn V(B,PSUB): LEAVING@  0.00900231us ;
SOAC: I0.MNA.soac_m1       modn V(B,PSUB): LEAVING@  0.0090066us ;
SOAC: I0.MNA.soac_m1       modn V(B,PSUB): ENTERING@ 0.0101625us duration:0.00116us ;
SOAC: I0.MND.soac_m1       modn V(B,PSUB): ENTERING@ 0.0101923us duration:0.00119us ;
    tran: time = 10.51 ns    (52.5 %), step = 13.04 ps    (65.2 m%)
SOAC: I0.MND.soac_m1       modn V(B,PSUB): LEAVING@  0.0102238us ;
    tran: time = 11.5 ns     (57.5 %), step = 16.78 ps    (83.9 m%)
SOAC: I0.MND.soac_m1       modn V(B,PSUB): ENTERING@ 0.0115457us duration:0.00132us ;
    tran: time = 12.51 ns    (62.5 %), step = 14.38 ps    (71.9 m%)
SOAC: I0.MND.soac_m1       modn V(B,PSUB): LEAVING@  0.0122822us ;
    tran: time = 13.51 ns    (67.5 %), step = 26.78 ps     (134 m%)
    tran: time = 14.52 ns    (72.6 %), step = 23.23 ps     (116 m%)
    tran: time = 15.52 ns    (77.6 %), step = 16.82 ps    (84.1 m%)
SOAC: I0.MND.soac_m1       modn V(B,PSUB): ENTERING@ 0.0155606us duration:0.00328us ;
SOAC: I0.MNA.soac_m1       modn V(B,PSUB): LEAVING@  0.0150535us ;
SOAC: I0.MNA.soac_m1       modn V(B,PSUB): ENTERING@ 0.0160536us duration:0.001us ;
    tran: time = 16.51 ns    (82.5 %), step = 14.46 ps    (72.3 m%)
SOAC: I0.MND.soac_m1       modn V(B,PSUB): LEAVING@  0.0162822us ;
    tran: time = 17.51 ns    (87.5 %), step = 26.83 ps     (134 m%)
    tran: time = 18.52 ns    (92.6 %), step = 23.23 ps     (116 m%)
    tran: time = 19.52 ns    (97.6 %), step = 16.82 ps    (84.1 m%)
SOAC: I0.MND.soac_m1       modn V(B,PSUB): ENTERING@ 0.0195606us duration:0.00328us ;
Number of accepted tran steps =             2523

Maximum value achieved for any signal of each quantity: 
V: V(I0.net1) = 3.629 V
I: I(V:p) = 255.9 uA

~~~~~~~~~~~~~~~~~~~~~~~~~~~~~~~~~
Post-Transient Simulation Summary
~~~~~~~~~~~~~~~~~~~~~~~~~~~~~~~~~
   -   To further speed up simulation, consider
          add ++aps on command line
   -   Non-default settings that could significantly slow down simulation
          errpreset = conservative, default moderate
          reltol = 10e-06, default 100e-06 (conservative)
~~~~~~~~~~~~~~~~~~~~~~~~~~~~~~~~~


During simulation, the CPU load for active processors is :
         0 (10.3 %)      1 (6.2 %)       2 (3.5 %)       3 (1.6 %)
         4 (30.7 %)      5 (1.3 %)       6 (2.5 %)       7 (13.5 %)
         8 (17.8 %)      9 (14.4 %)     10 (4.7 %)      11 (2.8 %)
        Total: 109.3%
Initial condition solution time: CPU = 395 us, elapsed = 397.205 us.
Intrinsic tran analysis time:    CPU = 235.982 ms, elapsed = 244.646 ms.
Total time required for tran analysis `tran': CPU = 237.58 ms, elapsed = 255.588 ms, util. = 93%.
Time accumulated: CPU = 2.34169 s, elapsed = 3.23055 s.
Peak resident memory used = 193 Mbytes.

finalTimeOP: writing operating point information to rawfile.

Opening the PSF file ../psf/mc1_separate/008/finalTimeOP.info ...
modelParameter: writing model parameter values to rawfile.

Opening the PSF file ../psf/mc1_separate/008/modelParameter.info ...
element: writing instance parameter values to rawfile.

Opening the PSF file ../psf/mc1_separate/008/element.info ...
outputParameter: writing output parameter values to rawfile.

Opening the PSF file ../psf/mc1_separate/008/outputParameter.info ...
designParamVals: writing netlist parameters to rawfile.

Opening the PSFASCII file ../psf/mc1_separate/008/designParamVals.info ...
primitives: writing primitives to rawfile.

Opening the PSFASCII file ../psf/mc1_separate/008/primitives.info.primitives ...
subckts: writing subcircuits to rawfile.

Opening the PSFASCII file ../psf/mc1_separate/008/subckts.info.subckts ...
    mc1: iteration = 8           (3.52 %), step = 1            (503 m%)
9              4.02% 

************************************************
Transient Analysis `tran': time = (0 s -> 20 ns)
************************************************

Opening the PSF file ../psf/mc1_separate/009/tran.tran.tran ...

Notice from spectre during IC analysis, during transient analysis `tran', during Monte Carlo analysis `mc1'.
    GminDC = 1 pS is large enough to noticeably affect the DC solution.
        dV(I0.net2) = 3.69517 mV
        Use the `gmin_check' option to eliminate or expand this report.
Warning from spectre during check, during IC analysis, during transient analysis `tran', during Monte Carlo analysis `mc1'.
    WARNING (CMI-2943): Parameter checks have been ignored because the valid value for parameter 'trise' could not be found in 'C0'.

DC simulation time: CPU = 408 us, elapsed = 409.126 us.
Important parameter values:
    start = 0 s
    outputstart = 0 s
    stop = 20 ns
    step = 20 ps
    maxstep = 200 ps
    ic = all
    useprevic = no
    skipdc = no
    reltol = 10e-06
    abstol(V) = 1 uV
    abstol(I) = 1 pA
    temp = 27 C
    tnom = 27 C
    tempeffects = all
    errpreset = conservative
    method = gear2only
    lteratio = 10
    relref = alllocal
    cmin = 0 F
    gmin = 1 pS
    rabsshort = 1 mOhm


Notice from spectre during transient analysis `tran', during Monte Carlo analysis `mc1'.
    Multithreading is disabled due to the size of the design being too small.


Output and IC/nodeset summary:
                 save   5       (current)
                 save   17      (voltage)

    tran: time = 500.4 ps     (2.5 %), step = 47.97 ps     (240 m%)
    tran: time = 1.511 ns    (7.55 %), step = 25.63 ps     (128 m%)
    tran: time = 2.52 ns     (12.6 %), step = 33.16 ps     (166 m%)
    tran: time = 3.513 ns    (17.6 %), step = 34.79 ps     (174 m%)
    tran: time = 4.52 ns     (22.6 %), step = 21.16 ps     (106 m%)
    tran: time = 5.504 ns    (27.5 %), step = 16.09 ps    (80.4 m%)
SOAC: I0.MND.soac_m1       modn V(B,PSUB): LEAVING@  0.00500268us ;
SOAC: I0.MNA.soac_m1       modn V(B,PSUB): LEAVING@  0.005007us ;
SOAC: I0.MND.soac_m1       modn V(B,PSUB): ENTERING@ 0.00619725us duration:0.00119us ;
SOAC: I0.MNA.soac_m1       modn V(B,PSUB): ENTERING@ 0.00619725us duration:0.00119us ;
    tran: time = 6.504 ns    (32.5 %), step = 13.31 ps    (66.5 m%)
    tran: time = 7.509 ns    (37.5 %), step = 16.6 ps       (83 m%)
    tran: time = 8.516 ns    (42.6 %), step = 16.71 ps    (83.5 m%)
    tran: time = 9.51 ns     (47.6 %), step = 20.34 ps     (102 m%)
SOAC: I0.MND.soac_m1       modn V(B,PSUB): LEAVING@  0.00900229us ;
SOAC: I0.MNA.soac_m1       modn V(B,PSUB): LEAVING@  0.00900654us ;
SOAC: I0.MNA.soac_m1       modn V(B,PSUB): ENTERING@ 0.0101628us duration:0.00116us ;
SOAC: I0.MND.soac_m1       modn V(B,PSUB): ENTERING@ 0.0101966us duration:0.00119us ;
    tran: time = 10.51 ns    (52.5 %), step = 13.06 ps    (65.3 m%)
SOAC: I0.MND.soac_m1       modn V(B,PSUB): LEAVING@  0.0102079us ;
    tran: time = 11.51 ns    (57.5 %), step = 16.57 ps    (82.9 m%)
SOAC: I0.MND.soac_m1       modn V(B,PSUB): ENTERING@ 0.0115449us duration:0.00134us ;
    tran: time = 12.5 ns     (62.5 %), step = 14.35 ps    (71.8 m%)
SOAC: I0.MND.soac_m1       modn V(B,PSUB): LEAVING@  0.0122864us ;
    tran: time = 13.51 ns    (67.6 %), step = 27.03 ps     (135 m%)
    tran: time = 14.52 ns    (72.6 %), step = 23.08 ps     (115 m%)
    tran: time = 15.51 ns    (77.6 %), step = 16.72 ps    (83.6 m%)
SOAC: I0.MND.soac_m1       modn V(B,PSUB): ENTERING@ 0.0155606us duration:0.00327us ;
SOAC: I0.MNA.soac_m1       modn V(B,PSUB): LEAVING@  0.015054us ;
SOAC: I0.MNA.soac_m1       modn V(B,PSUB): ENTERING@ 0.0160547us duration:0.001us ;
    tran: time = 16.5 ns     (82.5 %), step = 14.43 ps    (72.1 m%)
SOAC: I0.MND.soac_m1       modn V(B,PSUB): LEAVING@  0.0162864us ;
    tran: time = 17.52 ns    (87.6 %), step = 27.3 ps      (137 m%)
    tran: time = 18.52 ns    (92.6 %), step = 23.16 ps     (116 m%)
    tran: time = 19.51 ns    (97.6 %), step = 16.73 ps    (83.7 m%)
SOAC: I0.MND.soac_m1       modn V(B,PSUB): ENTERING@ 0.0195606us duration:0.00327us ;
Number of accepted tran steps =             2543

Maximum value achieved for any signal of each quantity: 
V: V(I0.net1) = 3.63 V
I: I(V:p) = 250.1 uA

~~~~~~~~~~~~~~~~~~~~~~~~~~~~~~~~~
Post-Transient Simulation Summary
~~~~~~~~~~~~~~~~~~~~~~~~~~~~~~~~~
   -   To further speed up simulation, consider
          add ++aps on command line
   -   Non-default settings that could significantly slow down simulation
          errpreset = conservative, default moderate
          reltol = 10e-06, default 100e-06 (conservative)
~~~~~~~~~~~~~~~~~~~~~~~~~~~~~~~~~


During simulation, the CPU load for active processors is :
         0 (9.7 %)       1 (5.7 %)       2 (3.7 %)       3 (1.4 %)
         4 (28.1 %)      5 (1.1 %)       6 (2.6 %)       7 (12.6 %)
         8 (23.3 %)      9 (13.2 %)     10 (4.3 %)      11 (2.6 %)
        Total: 108.4%
Initial condition solution time: CPU = 427 us, elapsed = 427.008 us.
Intrinsic tran analysis time:    CPU = 237.527 ms, elapsed = 245.896 ms.
Total time required for tran analysis `tran': CPU = 239.332 ms, elapsed = 256.074 ms, util. = 93.5%.
Time accumulated: CPU = 2.59505 s, elapsed = 3.52592 s.
Peak resident memory used = 193 Mbytes.

finalTimeOP: writing operating point information to rawfile.

Opening the PSF file ../psf/mc1_separate/009/finalTimeOP.info ...
modelParameter: writing model parameter values to rawfile.

Opening the PSF file ../psf/mc1_separate/009/modelParameter.info ...
element: writing instance parameter values to rawfile.

Opening the PSF file ../psf/mc1_separate/009/element.info ...
outputParameter: writing output parameter values to rawfile.

Opening the PSF file ../psf/mc1_separate/009/outputParameter.info ...
designParamVals: writing netlist parameters to rawfile.

Opening the PSFASCII file ../psf/mc1_separate/009/designParamVals.info ...
primitives: writing primitives to rawfile.

Opening the PSFASCII file ../psf/mc1_separate/009/primitives.info.primitives ...
subckts: writing subcircuits to rawfile.

Opening the PSFASCII file ../psf/mc1_separate/009/subckts.info.subckts ...
    mc1: iteration = 9           (4.02 %), step = 1            (503 m%)
10             4.52% 

************************************************
Transient Analysis `tran': time = (0 s -> 20 ns)
************************************************

Opening the PSF file ../psf/mc1_separate/010/tran.tran.tran ...

Notice from spectre during IC analysis, during transient analysis `tran', during Monte Carlo analysis `mc1'.
    GminDC = 1 pS is large enough to noticeably affect the DC solution.
        dV(I0.net2) = 3.35973 mV
        Use the `gmin_check' option to eliminate or expand this report.
Warning from spectre during check, during IC analysis, during transient analysis `tran', during Monte Carlo analysis `mc1'.
    WARNING (CMI-2943): Parameter checks have been ignored because the valid value for parameter 'trise' could not be found in 'C0'.

DC simulation time: CPU = 367 us, elapsed = 367.88 us.
Important parameter values:
    start = 0 s
    outputstart = 0 s
    stop = 20 ns
    step = 20 ps
    maxstep = 200 ps
    ic = all
    useprevic = no
    skipdc = no
    reltol = 10e-06
    abstol(V) = 1 uV
    abstol(I) = 1 pA
    temp = 27 C
    tnom = 27 C
    tempeffects = all
    errpreset = conservative
    method = gear2only
    lteratio = 10
    relref = alllocal
    cmin = 0 F
    gmin = 1 pS
    rabsshort = 1 mOhm


Notice from spectre during transient analysis `tran', during Monte Carlo analysis `mc1'.
    Multithreading is disabled due to the size of the design being too small.


Output and IC/nodeset summary:
                 save   5       (current)
                 save   17      (voltage)

    tran: time = 505 ps      (2.53 %), step = 50 ps        (250 m%)
    tran: time = 1.515 ns    (7.58 %), step = 26.29 ps     (131 m%)
    tran: time = 2.521 ns    (12.6 %), step = 33.9 ps      (169 m%)
    tran: time = 3.515 ns    (17.6 %), step = 33.94 ps     (170 m%)
    tran: time = 4.505 ns    (22.5 %), step = 20.61 ps     (103 m%)
    tran: time = 5.507 ns    (27.5 %), step = 16.38 ps    (81.9 m%)
SOAC: I0.MND.soac_m1       modn V(B,PSUB): LEAVING@  0.00500268us ;
SOAC: I0.MNA.soac_m1       modn V(B,PSUB): LEAVING@  0.005007us ;
SOAC: I0.MNA.soac_m1       modn V(B,PSUB): ENTERING@ 0.00619715us duration:0.00119us ;
SOAC: I0.MND.soac_m1       modn V(B,PSUB): ENTERING@ 0.00619724us duration:0.00119us ;
    tran: time = 6.504 ns    (32.5 %), step = 13.35 ps    (66.7 m%)
    tran: time = 7.503 ns    (37.5 %), step = 16.91 ps    (84.5 m%)
    tran: time = 8.504 ns    (42.5 %), step = 5.861 ps    (29.3 m%)
    tran: time = 9.512 ns    (47.6 %), step = 20.94 ps     (105 m%)
SOAC: I0.MND.soac_m1       modn V(B,PSUB): LEAVING@  0.00900225us ;
SOAC: I0.MNA.soac_m1       modn V(B,PSUB): LEAVING@  0.00900651us ;
SOAC: I0.MNA.soac_m1       modn V(B,PSUB): ENTERING@ 0.0101627us duration:0.00116us ;
SOAC: I0.MND.soac_m1       modn V(B,PSUB): ENTERING@ 0.0101964us duration:0.00119us ;
    tran: time = 10.5 ns     (52.5 %), step = 12.73 ps    (63.6 m%)
SOAC: I0.MND.soac_m1       modn V(B,PSUB): LEAVING@  0.0102083us ;
    tran: time = 11.51 ns    (57.5 %), step = 15.13 ps    (75.6 m%)
SOAC: I0.MND.soac_m1       modn V(B,PSUB): ENTERING@ 0.0115403us duration:0.00133us ;
    tran: time = 12.5 ns     (62.5 %), step = 14.48 ps    (72.4 m%)
SOAC: I0.MND.soac_m1       modn V(B,PSUB): LEAVING@  0.012288us ;
    tran: time = 13.52 ns    (67.6 %), step = 27.29 ps     (136 m%)
    tran: time = 14.51 ns    (72.5 %), step = 27.36 ps     (137 m%)
    tran: time = 15.5 ns     (77.5 %), step = 16.11 ps    (80.6 m%)
SOAC: I0.MND.soac_m1       modn V(B,PSUB): ENTERING@ 0.0155548us duration:0.00327us ;
SOAC: I0.MNA.soac_m1       modn V(B,PSUB): LEAVING@  0.0150535us ;
SOAC: I0.MNA.soac_m1       modn V(B,PSUB): ENTERING@ 0.0160549us duration:0.001us ;
    tran: time = 16.51 ns    (82.5 %), step = 14.55 ps    (72.8 m%)
SOAC: I0.MND.soac_m1       modn V(B,PSUB): LEAVING@  0.016288us ;
    tran: time = 17.52 ns    (87.6 %), step = 27.34 ps     (137 m%)
    tran: time = 18.51 ns    (92.5 %), step = 27.36 ps     (137 m%)
    tran: time = 19.5 ns     (97.5 %), step = 16.11 ps    (80.6 m%)
SOAC: I0.MND.soac_m1       modn V(B,PSUB): ENTERING@ 0.0195548us duration:0.00327us ;
Number of accepted tran steps =             2533

Maximum value achieved for any signal of each quantity: 
V: V(I0.net1) = 3.631 V
I: I(V:p) = 247.1 uA

~~~~~~~~~~~~~~~~~~~~~~~~~~~~~~~~~
Post-Transient Simulation Summary
~~~~~~~~~~~~~~~~~~~~~~~~~~~~~~~~~
   -   To further speed up simulation, consider
          add ++aps on command line
   -   Non-default settings that could significantly slow down simulation
          errpreset = conservative, default moderate
          reltol = 10e-06, default 100e-06 (conservative)
~~~~~~~~~~~~~~~~~~~~~~~~~~~~~~~~~


During simulation, the CPU load for active processors is :
         0 (9.2 %)       1 (5.8 %)       2 (5.5 %)       3 (1.8 %)
         4 (29.7 %)      5 (1.6 %)       6 (2.6 %)       7 (11.9 %)
         8 (22.3 %)      9 (14.4 %)     10 (7.9 %)      11 (2.9 %)
        Total: 115.6%
Initial condition solution time: CPU = 383 us, elapsed = 384.092 us.
Intrinsic tran analysis time:    CPU = 257.156 ms, elapsed = 263.597 ms.
Total time required for tran analysis `tran': CPU = 258.978 ms, elapsed = 272.138 ms, util. = 95.2%.
Time accumulated: CPU = 2.86671 s, elapsed = 3.83766 s.
Peak resident memory used = 193 Mbytes.

finalTimeOP: writing operating point information to rawfile.

Opening the PSF file ../psf/mc1_separate/010/finalTimeOP.info ...
modelParameter: writing model parameter values to rawfile.

Opening the PSF file ../psf/mc1_separate/010/modelParameter.info ...
element: writing instance parameter values to rawfile.

Opening the PSF file ../psf/mc1_separate/010/element.info ...
outputParameter: writing output parameter values to rawfile.

Opening the PSF file ../psf/mc1_separate/010/outputParameter.info ...
designParamVals: writing netlist parameters to rawfile.

Opening the PSFASCII file ../psf/mc1_separate/010/designParamVals.info ...
primitives: writing primitives to rawfile.

Opening the PSFASCII file ../psf/mc1_separate/010/primitives.info.primitives ...
subckts: writing subcircuits to rawfile.

Opening the PSFASCII file ../psf/mc1_separate/010/subckts.info.subckts ...
    mc1: iteration = 10          (4.52 %), step = 1            (503 m%)
11             5.03% 

************************************************
Transient Analysis `tran': time = (0 s -> 20 ns)
************************************************

Opening the PSF file ../psf/mc1_separate/011/tran.tran.tran ...

Notice from spectre during IC analysis, during transient analysis `tran', during Monte Carlo analysis `mc1'.
    GminDC = 1 pS is large enough to noticeably affect the DC solution.
        dV(I0.net2) = 5.52831 mV
        Use the `gmin_check' option to eliminate or expand this report.
Warning from spectre during check, during IC analysis, during transient analysis `tran', during Monte Carlo analysis `mc1'.
    WARNING (CMI-2943): Parameter checks have been ignored because the valid value for parameter 'trise' could not be found in 'C0'.

DC simulation time: CPU = 365 us, elapsed = 366.926 us.
Important parameter values:
    start = 0 s
    outputstart = 0 s
    stop = 20 ns
    step = 20 ps
    maxstep = 200 ps
    ic = all
    useprevic = no
    skipdc = no
    reltol = 10e-06
    abstol(V) = 1 uV
    abstol(I) = 1 pA
    temp = 27 C
    tnom = 27 C
    tempeffects = all
    errpreset = conservative
    method = gear2only
    lteratio = 10
    relref = alllocal
    cmin = 0 F
    gmin = 1 pS
    rabsshort = 1 mOhm


Notice from spectre during transient analysis `tran', during Monte Carlo analysis `mc1'.
    Multithreading is disabled due to the size of the design being too small.


Output and IC/nodeset summary:
                 save   5       (current)
                 save   17      (voltage)

    tran: time = 540 ps       (2.7 %), step = 41.31 ps     (207 m%)
    tran: time = 1.505 ns    (7.53 %), step = 25.02 ps     (125 m%)
    tran: time = 2.51 ns     (12.5 %), step = 32.62 ps     (163 m%)
    tran: time = 3.511 ns    (17.6 %), step = 34.02 ps     (170 m%)
    tran: time = 4.501 ns    (22.5 %), step = 19.97 ps    (99.9 m%)
    tran: time = 5.515 ns    (27.6 %), step = 15.81 ps    (79.1 m%)
SOAC: I0.MND.soac_m1       modn V(B,PSUB): LEAVING@  0.00500265us ;
SOAC: I0.MNA.soac_m1       modn V(B,PSUB): LEAVING@  0.005007us ;
SOAC: I0.MNA.soac_m1       modn V(B,PSUB): ENTERING@ 0.00619575us duration:0.00119us ;
SOAC: I0.MND.soac_m1       modn V(B,PSUB): ENTERING@ 0.00619598us duration:0.00119us ;
    tran: time = 6.51 ns     (32.6 %), step = 13.53 ps    (67.7 m%)
    tran: time = 7.513 ns    (37.6 %), step = 15.35 ps    (76.8 m%)
    tran: time = 8.509 ns    (42.5 %), step = 13.52 ps    (67.6 m%)
    tran: time = 9.522 ns    (47.6 %), step = 22.96 ps     (115 m%)
SOAC: I0.MND.soac_m1       modn V(B,PSUB): LEAVING@  0.0090023us ;
SOAC: I0.MNA.soac_m1       modn V(B,PSUB): LEAVING@  0.00900651us ;
SOAC: I0.MNA.soac_m1       modn V(B,PSUB): ENTERING@ 0.0101619us duration:0.00116us ;
SOAC: I0.MND.soac_m1       modn V(B,PSUB): ENTERING@ 0.0101938us duration:0.00119us ;
    tran: time = 10.51 ns    (52.5 %), step = 13.52 ps    (67.6 m%)
SOAC: I0.MND.soac_m1       modn V(B,PSUB): LEAVING@  0.0102177us ;
    tran: time = 11.5 ns     (57.5 %), step = 16.88 ps    (84.4 m%)
SOAC: I0.MND.soac_m1       modn V(B,PSUB): ENTERING@ 0.0115452us duration:0.00133us ;
    tran: time = 12.51 ns    (62.5 %), step = 14.48 ps    (72.4 m%)
SOAC: I0.MND.soac_m1       modn V(B,PSUB): LEAVING@  0.012284us ;
    tran: time = 13.51 ns    (67.6 %), step = 27.26 ps     (136 m%)
    tran: time = 14.52 ns    (72.6 %), step = 23.18 ps     (116 m%)
    tran: time = 15.5 ns     (77.5 %), step = 15.89 ps    (79.5 m%)
SOAC: I0.MND.soac_m1       modn V(B,PSUB): ENTERING@ 0.0155597us duration:0.00328us ;
SOAC: I0.MNA.soac_m1       modn V(B,PSUB): LEAVING@  0.0150532us ;
SOAC: I0.MNA.soac_m1       modn V(B,PSUB): ENTERING@ 0.0160539us duration:0.001us ;
    tran: time = 16.51 ns    (82.5 %), step = 14.59 ps      (73 m%)
SOAC: I0.MND.soac_m1       modn V(B,PSUB): LEAVING@  0.016284us ;
    tran: time = 17.51 ns    (87.5 %), step = 27.04 ps     (135 m%)
    tran: time = 18.52 ns    (92.6 %), step = 23.15 ps     (116 m%)
    tran: time = 19.5 ns     (97.5 %), step = 15.89 ps    (79.5 m%)
SOAC: I0.MND.soac_m1       modn V(B,PSUB): ENTERING@ 0.0195597us duration:0.00328us ;
Number of accepted tran steps =             2542

Maximum value achieved for any signal of each quantity: 
V: V(I0.net1) = 3.63 V
I: I(V:p) = 252.8 uA

~~~~~~~~~~~~~~~~~~~~~~~~~~~~~~~~~
Post-Transient Simulation Summary
~~~~~~~~~~~~~~~~~~~~~~~~~~~~~~~~~
   -   To further speed up simulation, consider
          add ++aps on command line
   -   Non-default settings that could significantly slow down simulation
          errpreset = conservative, default moderate
          reltol = 10e-06, default 100e-06 (conservative)
~~~~~~~~~~~~~~~~~~~~~~~~~~~~~~~~~


During simulation, the CPU load for active processors is :
         0 (8.8 %)       1 (5.4 %)       2 (5.3 %)       3 (1.7 %)
         4 (34.1 %)      5 (1.9 %)       6 (2.4 %)       7 (11.7 %)
         8 (22.4 %)      9 (16.0 %)     10 (7.6 %)      11 (3.7 %)
        Total: 120.9%
Initial condition solution time: CPU = 382 us, elapsed = 386 us.
Intrinsic tran analysis time:    CPU = 251.182 ms, elapsed = 258.104 ms.
Total time required for tran analysis `tran': CPU = 252.671 ms, elapsed = 266.394 ms, util. = 94.8%.
Time accumulated: CPU = 3.13116 s, elapsed = 4.1397 s.
Peak resident memory used = 193 Mbytes.

finalTimeOP: writing operating point information to rawfile.

Opening the PSF file ../psf/mc1_separate/011/finalTimeOP.info ...
modelParameter: writing model parameter values to rawfile.

Opening the PSF file ../psf/mc1_separate/011/modelParameter.info ...
element: writing instance parameter values to rawfile.

Opening the PSF file ../psf/mc1_separate/011/element.info ...
outputParameter: writing output parameter values to rawfile.

Opening the PSF file ../psf/mc1_separate/011/outputParameter.info ...
designParamVals: writing netlist parameters to rawfile.

Opening the PSFASCII file ../psf/mc1_separate/011/designParamVals.info ...
primitives: writing primitives to rawfile.

Opening the PSFASCII file ../psf/mc1_separate/011/primitives.info.primitives ...
subckts: writing subcircuits to rawfile.

Opening the PSFASCII file ../psf/mc1_separate/011/subckts.info.subckts ...
    mc1: iteration = 11          (5.03 %), step = 1            (503 m%)
12             5.53% 

************************************************
Transient Analysis `tran': time = (0 s -> 20 ns)
************************************************

Opening the PSF file ../psf/mc1_separate/012/tran.tran.tran ...

Notice from spectre during IC analysis, during transient analysis `tran', during Monte Carlo analysis `mc1'.
    GminDC = 1 pS is large enough to noticeably affect the DC solution.
        dV(I0.net2) = 3.61213 mV
        Use the `gmin_check' option to eliminate or expand this report.
[...]
    tran: time = 3.509 ns    (17.5 %), step = 33.93 ps     (170 m%)
    tran: time = 4.502 ns    (22.5 %), step = 20.34 ps     (102 m%)
    tran: time = 5.505 ns    (27.5 %), step = 16 ps         (80 m%)
SOAC: I0.MND.soac_m1       modn V(B,PSUB): LEAVING@  0.00500267us ;
SOAC: I0.MNA.soac_m1       modn V(B,PSUB): LEAVING@  0.00500701us ;
SOAC: I0.MNA.soac_m1       modn V(B,PSUB): ENTERING@ 0.00619656us duration:0.00119us ;
SOAC: I0.MND.soac_m1       modn V(B,PSUB): ENTERING@ 0.00619671us duration:0.00119us ;
    tran: time = 6.502 ns    (32.5 %), step = 13.26 ps    (66.3 m%)
    tran: time = 7.503 ns    (37.5 %), step = 16.73 ps    (83.7 m%)
    tran: time = 8.5 ns      (42.5 %), step = 7.924 ps    (39.6 m%)
    tran: time = 9.511 ns    (47.6 %), step = 20.02 ps     (100 m%)
SOAC: I0.MND.soac_m1       modn V(B,PSUB): LEAVING@  0.00900227us ;
SOAC: I0.MNA.soac_m1       modn V(B,PSUB): LEAVING@  0.00900653us ;
SOAC: I0.MNA.soac_m1       modn V(B,PSUB): ENTERING@ 0.0101629us duration:0.00116us ;
SOAC: I0.MND.soac_m1       modn V(B,PSUB): ENTERING@ 0.010194us duration:0.00119us ;
    tran: time = 10.51 ns    (52.5 %), step = 12.9 ps     (64.5 m%)
SOAC: I0.MND.soac_m1       modn V(B,PSUB): LEAVING@  0.0102163us ;
    tran: time = 11.5 ns     (57.5 %), step = 16.86 ps    (84.3 m%)
SOAC: I0.MND.soac_m1       modn V(B,PSUB): ENTERING@ 0.0115394us duration:0.00132us ;
    tran: time = 12.51 ns    (62.6 %), step = 14.73 ps    (73.6 m%)
SOAC: I0.MND.soac_m1       modn V(B,PSUB): LEAVING@  0.0122864us ;
    tran: time = 13.51 ns    (67.6 %), step = 26.75 ps     (134 m%)
    tran: time = 14.52 ns    (72.6 %), step = 23.36 ps     (117 m%)
    tran: time = 15.5 ns     (77.5 %), step = 16.1 ps     (80.5 m%)
SOAC: I0.MND.soac_m1       modn V(B,PSUB): ENTERING@ 0.0155546us duration:0.00327us ;
SOAC: I0.MNA.soac_m1       modn V(B,PSUB): LEAVING@  0.0150534us ;
SOAC: I0.MNA.soac_m1       modn V(B,PSUB): ENTERING@ 0.0160544us duration:0.001us ;
    tran: time = 16.51 ns    (82.6 %), step = 14.81 ps    (74.1 m%)
SOAC: I0.MND.soac_m1       modn V(B,PSUB): LEAVING@  0.0162864us ;
    tran: time = 17.51 ns    (87.6 %), step = 26.82 ps     (134 m%)
    tran: time = 18.52 ns    (92.6 %), step = 23.36 ps     (117 m%)
    tran: time = 19.5 ns     (97.5 %), step = 16.1 ps     (80.5 m%)
SOAC: I0.MND.soac_m1       modn V(B,PSUB): ENTERING@ 0.0195546us duration:0.00327us ;
Number of accepted tran steps =             2540

Maximum value achieved for any signal of each quantity: 
V: V(I0.net1) = 3.63 V
I: I(V:p) = 248.7 uA

~~~~~~~~~~~~~~~~~~~~~~~~~~~~~~~~~
Post-Transient Simulation Summary
~~~~~~~~~~~~~~~~~~~~~~~~~~~~~~~~~
   -   To further speed up simulation, consider
          add ++aps on command line
   -   Non-default settings that could significantly slow down simulation
          errpreset = conservative, default moderate
          reltol = 10e-06, default 100e-06 (conservative)
~~~~~~~~~~~~~~~~~~~~~~~~~~~~~~~~~


During simulation, the CPU load for active processors is :
         0 (12.7 %)      1 (5.0 %)       2 (10.4 %)      3 (12.2 %)
         4 (24.8 %)      5 (12.1 %)      6 (8.1 %)       7 (7.1 %)
         8 (9.9 %)       9 (12.9 %)     10 (11.7 %)     11 (12.7 %)
        Total: 139.5%
Initial condition solution time: CPU = 406 us, elapsed = 409.842 us.
Intrinsic tran analysis time:    CPU = 256.643 ms, elapsed = 269.396 ms.
Total time required for tran analysis `tran': CPU = 258.207 ms, elapsed = 277.777 ms, util. = 93%.
Time accumulated: CPU = 21.5286 s, elapsed = 25.3851 s.
Peak resident memory used = 194 Mbytes.

finalTimeOP: writing operating point information to rawfile.

Opening the PSF file ../psf/mc1_separate/079/finalTimeOP.info ...
modelParameter: writing model parameter values to rawfile.

Opening the PSF file ../psf/mc1_separate/079/modelParameter.info ...
element: writing instance parameter values to rawfile.

Opening the PSF file ../psf/mc1_separate/079/element.info ...
outputParameter: writing output parameter values to rawfile.

Opening the PSF file ../psf/mc1_separate/079/outputParameter.info ...
designParamVals: writing netlist parameters to rawfile.

Opening the PSFASCII file ../psf/mc1_separate/079/designParamVals.info ...
primitives: writing primitives to rawfile.

Opening the PSFASCII file ../psf/mc1_separate/079/primitives.info.primitives ...
subckts: writing subcircuits to rawfile.

Opening the PSFASCII file ../psf/mc1_separate/079/subckts.info.subckts ...
    mc1: iteration = 79          (39.2 %), step = 1            (503 m%)
80            39.70% 

************************************************
Transient Analysis `tran': time = (0 s -> 20 ns)
************************************************

Opening the PSF file ../psf/mc1_separate/080/tran.tran.tran ...

Notice from spectre during IC analysis, during transient analysis `tran', during Monte Carlo analysis `mc1'.
    GminDC = 1 pS is large enough to noticeably affect the DC solution.
        dV(I0.net2) = 4.53575 mV
        Use the `gmin_check' option to eliminate or expand this report.
Warning from spectre during check, during IC analysis, during transient analysis `tran', during Monte Carlo analysis `mc1'.
    WARNING (CMI-2943): Parameter checks have been ignored because the valid value for parameter 'trise' could not be found in 'C0'.

DC simulation time: CPU = 348 us, elapsed = 355.959 us.
Important parameter values:
    start = 0 s
    outputstart = 0 s
    stop = 20 ns
    step = 20 ps
    maxstep = 200 ps
    ic = all
    useprevic = no
    skipdc = no
    reltol = 10e-06
    abstol(V) = 1 uV
    abstol(I) = 1 pA
    temp = 27 C
    tnom = 27 C
    tempeffects = all
    errpreset = conservative
    method = gear2only
    lteratio = 10
    relref = alllocal
    cmin = 0 F
    gmin = 1 pS
    rabsshort = 1 mOhm


Notice from spectre during transient analysis `tran', during Monte Carlo analysis `mc1'.
    Multithreading is disabled due to the size of the design being too small.


Output and IC/nodeset summary:
                 save   5       (current)
                 save   17      (voltage)

    tran: time = 507 ps      (2.54 %), step = 46.5 ps      (232 m%)
    tran: time = 1.514 ns    (7.57 %), step = 25.98 ps     (130 m%)
    tran: time = 2.518 ns    (12.6 %), step = 33.36 ps     (167 m%)
    tran: time = 3.516 ns    (17.6 %), step = 34.43 ps     (172 m%)
    tran: time = 4.511 ns    (22.6 %), step = 25.48 ps     (127 m%)
    tran: time = 5.501 ns    (27.5 %), step = 16.16 ps    (80.8 m%)
SOAC: I0.MND.soac_m1       modn V(B,PSUB): LEAVING@  0.00500267us ;
SOAC: I0.MNA.soac_m1       modn V(B,PSUB): LEAVING@  0.00500701us ;
SOAC: I0.MNA.soac_m1       modn V(B,PSUB): ENTERING@ 0.00619697us duration:0.00119us ;
SOAC: I0.MND.soac_m1       modn V(B,PSUB): ENTERING@ 0.00619714us duration:0.00119us ;
    tran: time = 6.5 ns      (32.5 %), step = 13.23 ps    (66.2 m%)
    tran: time = 7.502 ns    (37.5 %), step = 17.65 ps    (88.3 m%)
    tran: time = 8.501 ns    (42.5 %), step = 13.96 ps    (69.8 m%)
    tran: time = 9.509 ns    (47.5 %), step = 20.43 ps     (102 m%)
SOAC: I0.MND.soac_m1       modn V(B,PSUB): LEAVING@  0.00900225us ;
SOAC: I0.MNA.soac_m1       modn V(B,PSUB): LEAVING@  0.00900653us ;
SOAC: I0.MNA.soac_m1       modn V(B,PSUB): ENTERING@ 0.0101621us duration:0.00116us ;
SOAC: I0.MND.soac_m1       modn V(B,PSUB): ENTERING@ 0.0101975us duration:0.0012us ;
    tran: time = 10.51 ns    (52.5 %), step = 12.94 ps    (64.7 m%)
SOAC: I0.MND.soac_m1       modn V(B,PSUB): LEAVING@  0.0102054us ;
    tran: time = 11.51 ns    (57.6 %), step = 14.33 ps    (71.7 m%)
SOAC: I0.MND.soac_m1       modn V(B,PSUB): ENTERING@ 0.0115421us duration:0.00134us ;
    tran: time = 12.5 ns     (62.5 %), step = 14.4 ps       (72 m%)
SOAC: I0.MND.soac_m1       modn V(B,PSUB): LEAVING@  0.0122867us ;
    tran: time = 13.51 ns    (67.6 %), step = 27.12 ps     (136 m%)
    tran: time = 14.5 ns     (72.5 %), step = 27.08 ps     (135 m%)
    tran: time = 15.51 ns    (77.6 %), step = 16.76 ps    (83.8 m%)
SOAC: I0.MND.soac_m1       modn V(B,PSUB): ENTERING@ 0.0155567us duration:0.00327us ;
SOAC: I0.MNA.soac_m1       modn V(B,PSUB): LEAVING@  0.0150533us ;
SOAC: I0.MNA.soac_m1       modn V(B,PSUB): ENTERING@ 0.0160545us duration:0.001us ;
    tran: time = 16.5 ns     (82.5 %), step = 14.47 ps    (72.4 m%)
SOAC: I0.MND.soac_m1       modn V(B,PSUB): LEAVING@  0.0162866us ;
    tran: time = 17.52 ns    (87.6 %), step = 27.44 ps     (137 m%)
    tran: time = 18.5 ns     (92.5 %), step = 27.09 ps     (135 m%)
    tran: time = 19.51 ns    (97.6 %), step = 16.76 ps    (83.8 m%)
SOAC: I0.MND.soac_m1       modn V(B,PSUB): ENTERING@ 0.0195567us duration:0.00327us ;
Number of accepted tran steps =             2537

Maximum value achieved for any signal of each quantity: 
V: V(I0.net1) = 3.63 V
I: I(V:p) = 248.6 uA

~~~~~~~~~~~~~~~~~~~~~~~~~~~~~~~~~
Post-Transient Simulation Summary
~~~~~~~~~~~~~~~~~~~~~~~~~~~~~~~~~
   -   To further speed up simulation, consider
          add ++aps on command line
   -   Non-default settings that could significantly slow down simulation
          errpreset = conservative, default moderate
          reltol = 10e-06, default 100e-06 (conservative)
~~~~~~~~~~~~~~~~~~~~~~~~~~~~~~~~~


During simulation, the CPU load for active processors is :
         0 (13.4 %)      1 (5.0 %)       2 (10.2 %)      3 (12.1 %)
         4 (24.5 %)      5 (12.0 %)      6 (8.2 %)       7 (7.0 %)
         8 (9.8 %)       9 (12.7 %)     10 (11.5 %)     11 (12.6 %)
        Total: 139.1%
Initial condition solution time: CPU = 365 us, elapsed = 372.887 us.
Intrinsic tran analysis time:    CPU = 245.844 ms, elapsed = 254.136 ms.
Total time required for tran analysis `tran': CPU = 247.448 ms, elapsed = 262.911 ms, util. = 94.1%.
Time accumulated: CPU = 21.788 s, elapsed = 25.6869 s.
Peak resident memory used = 194 Mbytes.

finalTimeOP: writing operating point information to rawfile.

Opening the PSF file ../psf/mc1_separate/080/finalTimeOP.info ...
modelParameter: writing model parameter values to rawfile.

Opening the PSF file ../psf/mc1_separate/080/modelParameter.info ...
element: writing instance parameter values to rawfile.

Opening the PSF file ../psf/mc1_separate/080/element.info ...
outputParameter: writing output parameter values to rawfile.

Opening the PSF file ../psf/mc1_separate/080/outputParameter.info ...
designParamVals: writing netlist parameters to rawfile.

Opening the PSFASCII file ../psf/mc1_separate/080/designParamVals.info ...
primitives: writing primitives to rawfile.

Opening the PSFASCII file ../psf/mc1_separate/080/primitives.info.primitives ...
subckts: writing subcircuits to rawfile.

Opening the PSFASCII file ../psf/mc1_separate/080/subckts.info.subckts ...
    mc1: iteration = 80          (39.7 %), step = 1            (503 m%)
81            40.20% 

************************************************
Transient Analysis `tran': time = (0 s -> 20 ns)
************************************************

Opening the PSF file ../psf/mc1_separate/081/tran.tran.tran ...

Notice from spectre during IC analysis, during transient analysis `tran', during Monte Carlo analysis `mc1'.
    GminDC = 1 pS is large enough to noticeably affect the DC solution.
        dV(I0.net2) = 6.05135 mV
        Use the `gmin_check' option to eliminate or expand this report.
Warning from spectre during check, during IC analysis, during transient analysis `tran', during Monte Carlo analysis `mc1'.
    WARNING (CMI-2943): Parameter checks have been ignored because the valid value for parameter 'trise' could not be found in 'C0'.

DC simulation time: CPU = 338 us, elapsed = 338.078 us.
Important parameter values:
    start = 0 s
    outputstart = 0 s
    stop = 20 ns
    step = 20 ps
    maxstep = 200 ps
    ic = all
    useprevic = no
    skipdc = no
    reltol = 10e-06
    abstol(V) = 1 uV
    abstol(I) = 1 pA
    temp = 27 C
    tnom = 27 C
    tempeffects = all
    errpreset = conservative
    method = gear2only
    lteratio = 10
    relref = alllocal
    cmin = 0 F
    gmin = 1 pS
    rabsshort = 1 mOhm


Notice from spectre during transient analysis `tran', during Monte Carlo analysis `mc1'.
    Multithreading is disabled due to the size of the design being too small.


Output and IC/nodeset summary:
                 save   5       (current)
                 save   17      (voltage)

    tran: time = 538.4 ps    (2.69 %), step = 42.13 ps     (211 m%)
    tran: time = 1.507 ns    (7.54 %), step = 25.32 ps     (127 m%)
    tran: time = 2.509 ns    (12.5 %), step = 32.74 ps     (164 m%)
    tran: time = 3.509 ns    (17.5 %), step = 33.54 ps     (168 m%)
    tran: time = 4.502 ns    (22.5 %), step = 19.97 ps    (99.8 m%)
    tran: time = 5.502 ns    (27.5 %), step = 16.42 ps    (82.1 m%)
SOAC: I0.MND.soac_m1       modn V(B,PSUB): LEAVING@  0.00500269us ;
SOAC: I0.MNA.soac_m1       modn V(B,PSUB): LEAVING@  0.00500704us ;
SOAC: I0.MNA.soac_m1       modn V(B,PSUB): ENTERING@ 0.00619639us duration:0.00119us ;
SOAC: I0.MND.soac_m1       modn V(B,PSUB): ENTERING@ 0.00619663us duration:0.00119us ;
    tran: time = 6.512 ns    (32.6 %), step = 13.4 ps       (67 m%)
    tran: time = 7.503 ns    (37.5 %), step = 18.37 ps    (91.8 m%)
    tran: time = 8.508 ns    (42.5 %), step = 13.32 ps    (66.6 m%)
    tran: time = 9.506 ns    (47.5 %), step = 21.85 ps     (109 m%)
SOAC: I0.MND.soac_m1       modn V(B,PSUB): LEAVING@  0.00900231us ;
SOAC: I0.MNA.soac_m1       modn V(B,PSUB): LEAVING@  0.00900661us ;
SOAC: I0.MNA.soac_m1       modn V(B,PSUB): ENTERING@ 0.0101625us duration:0.00116us ;
SOAC: I0.MND.soac_m1       modn V(B,PSUB): ENTERING@ 0.0101952us duration:0.00119us ;
    tran: time = 10.5 ns     (52.5 %), step = 12.79 ps    (63.9 m%)
SOAC: I0.MND.soac_m1       modn V(B,PSUB): LEAVING@  0.0102118us ;
    tran: time = 11.51 ns    (57.5 %), step = 17.05 ps    (85.3 m%)
SOAC: I0.MND.soac_m1       modn V(B,PSUB): ENTERING@ 0.0115465us duration:0.00133us ;
    tran: time = 12.51 ns    (62.5 %), step = 14.52 ps    (72.6 m%)
SOAC: I0.MND.soac_m1       modn V(B,PSUB): LEAVING@  0.0122843us ;
    tran: time = 13.51 ns    (67.6 %), step = 27.08 ps     (135 m%)
    tran: time = 14.52 ns    (72.6 %), step = 23.42 ps     (117 m%)
    tran: time = 15.52 ns    (77.6 %), step = 16.79 ps      (84 m%)
SOAC: I0.MND.soac_m1       modn V(B,PSUB): ENTERING@ 0.0155616us duration:0.00328us ;
    tran: time = 16.5 ns     (82.5 %), step = 14.44 ps    (72.2 m%)
SOAC: I0.MND.soac_m1       modn V(B,PSUB): LEAVING@  0.0162843us ;
    tran: time = 17.51 ns    (87.6 %), step = 27.13 ps     (136 m%)
    tran: time = 18.52 ns    (92.6 %), step = 23.53 ps     (118 m%)
    tran: time = 19.52 ns    (97.6 %), step = 16.79 ps      (84 m%)
SOAC: I0.MND.soac_m1       modn V(B,PSUB): ENTERING@ 0.0195616us duration:0.00328us ;
Number of accepted tran steps =             2552

Maximum value achieved for any signal of each quantity: 
V: V(I0.net1) = 3.63 V
I: I(V:p) = 253.2 uA

~~~~~~~~~~~~~~~~~~~~~~~~~~~~~~~~~
Post-Transient Simulation Summary
~~~~~~~~~~~~~~~~~~~~~~~~~~~~~~~~~
   -   To further speed up simulation, consider
          add ++aps on command line
   -   Non-default settings that could significantly slow down simulation
          errpreset = conservative, default moderate
          reltol = 10e-06, default 100e-06 (conservative)
~~~~~~~~~~~~~~~~~~~~~~~~~~~~~~~~~


During simulation, the CPU load for active processors is :
         0 (14.3 %)      1 (4.9 %)       2 (10.1 %)      3 (12.0 %)
         4 (24.2 %)      5 (11.8 %)      6 (8.1 %)       7 (6.9 %)
         8 (9.7 %)       9 (12.6 %)     10 (11.4 %)     11 (12.5 %)
        Total: 138.5%
Initial condition solution time: CPU = 355 us, elapsed = 355.959 us.
Intrinsic tran analysis time:    CPU = 246.529 ms, elapsed = 255.458 ms.
Total time required for tran analysis `tran': CPU = 248.226 ms, elapsed = 265.266 ms, util. = 93.6%.
Time accumulated: CPU = 22.0487 s, elapsed = 25.9946 s.
Peak resident memory used = 195 Mbytes.

finalTimeOP: writing operating point information to rawfile.

Opening the PSF file ../psf/mc1_separate/081/finalTimeOP.info ...
modelParameter: writing model parameter values to rawfile.

Opening the PSF file ../psf/mc1_separate/081/modelParameter.info ...
element: writing instance parameter values to rawfile.

Opening the PSF file ../psf/mc1_separate/081/element.info ...
outputParameter: writing output parameter values to rawfile.

Opening the PSF file ../psf/mc1_separate/081/outputParameter.info ...
designParamVals: writing netlist parameters to rawfile.

Opening the PSFASCII file ../psf/mc1_separate/081/designParamVals.info ...

Spectre received SIGHUP sent from PID: 236440 with UID: 524544.
Process hierarchy of PID 236440 :
    PID        COMMAND
    236440     /eda/cadence/2022-23/RHELx86/IC_6.1.8.320/tools/bin/64bit/cdsServIpc -c 56639 -n 6 -r 0 -x cd /home/oj23092/VLSI_Design_Lab/Sim/lab2024/tb_ycircuit/adexl/results/data/MonteCarlo.0/3/lab2024:tb_ycircuit:1/groupRunDataDir/netlist ; ./runSimulation 
    232638     /eda/cadence/2022-23/RHELx86/IC_6.1.8.320/tools.lnx86/dfII/bin/64bit/virtuoso -noautostart -mpssession virtuoso225598 -mpshost it075891.wks.bris.ac.uk -davinciService DaVinciService_225598_1713642962 -log /home/oj23092/VLSI_Design_Lab/logs_oj23092/logs0/Job1.log2 -licenseLockFileName /home/oj23092/VLSI_Design_Lab/.tmp_oj23092/.it075891.wks.bris.ac.uk_225598 -interactiveA -interactiveE -interactiveRTT -nostdin -nographE -axlChildIdFlag 1 
    232535     /bin/sh /eda/cadence/2022-23/RHELx86/IC_6.1.8.320/share/bin/cdsXvfb-run -a -s -screen 0 1024x868x24 /eda/cadence/2022-23/RHELx86/IC_6.1.8.320/tools.lnx86/dfII/bin/64bit/virtuoso -noautostart -mpssession virtuoso225598 -mpshost it075891.wks.bris.ac.uk -davinciService DaVinciService_225598_1713642962 -log /home/oj23092/VLSI_Design_Lab/logs_oj23092/logs0/Job1.log2 -licenseLockFileName /home/oj23092/VLSI_Design_Lab/.tmp_oj23092/.it075891.wks.bris.ac.uk_225598 -interactiveA -interactiveE -interactiveRTT -nostdin -nographE -axlChildIdFlag 1 
    232534     /bin/sh /home/oj23092/VLSI_Design_Lab/.tmp_oj23092/.cmddir0/runICRP1 
    232533     /eda/cadence/2022-23/RHELx86/IC_6.1.8.320/tools/bin/64bit/cdsServIpc -c 45255 -n 13 -r 10 -x /home/oj23092/VLSI_Design_Lab/.tmp_oj23092/.cmddir0/runICRP1 
    225598     /eda/cadence/2022-23/RHELx86/IC_6.1.8.320/tools/dfII/bin/64bit/virtuoso 
    225570     /bin/csh -f /eda/cadence/ams/4.10/cds/bin/ams_cds 
    225162     /bin/bash 
    225153     /usr/bin/konsole 
    223159     /usr/bin/plasmashell 
    223042     /usr/bin/plasma_session 
    222729     startkde 
    222727     /usr/bin/dbus-run-session /etc/x2go/Xsession 
    222619     /bin/bash /usr/bin/x2goruncommand 128 221686 oj23092-128-1713642572_stDKDE_dp32 43393 startkde nosnd D 
About to end simulation, please wait for a moment...
Licensing Information:
Lic Summary:
[21:22:13.180538] Cdslmd servers:5280@ls-dc2-fen-p1.services.bris.ac.uk:5280@ls-dc2-fen-p0.services.bris.ac.uk
[21:22:13.180561] Feature usage summary:
[21:22:13.180562] Virtuoso_Multi_mode_Simulation


Warning from spectre during info `designParamVals', during Monte Carlo analysis `mc1'.
    WARNING (SPECTRE-16002): Monte Carlo iteration 81 terminated prematurely because of the following error(s):
Error found by spectre during info `designParamVals', during Monte Carlo analysis `mc1'.
    ERROR (SPECTRE-25): 
        Message from ADE: Simulation stopped because you selected the 'Stop' command available in the context menu of the corresponding history in Run Summary assistant.nICRP1 


Aggregate audit (9:22:13 PM, Sat Apr 20, 2024):
Time used: CPU = 22.1 s, elapsed = 26 s, util. = 84.8%.
Time spent in licensing: elapsed = 358 ms.
Peak memory used = 196 Mbytes.
Simulation started at: 9:21:47 PM, Sat Apr 20, 2024, ended at: 9:22:13 PM, Sat Apr 20, 2024, with elapsed time (wall clock): 26 s.
spectre completes with 1 error, 98 warnings, and 170 notices.
spectre terminated prematurely due to fatal error.
