
Spectre (R) Circuit Simulator
Version 21.1.0.751.isr19 64bit -- 22 May 2023
Copyright (C) 1989-2023 Cadence Design Systems, Inc. All rights reserved worldwide. Cadence and Spectre are registered trademarks of Cadence Design Systems, Inc. All others are the property of their respective holders.

Includes RSA BSAFE(R) Cryptographic or Security Protocol Software from RSA Security, Inc.

User: oj23092   Host: it075644.wks.bris.ac.uk   HostID: DE89E887   PID: 1697697
Memory  available: 7.3867 GB  physical: 16.2980 GB
Linux   : Rocky Linux release 8.9 (Green Obsidian)
CPU Type: Intel(R) Core(TM) i7-8700 CPU @ 3.20GHz
        Socket: Processors [Frequency] (Hyperthreaded Processor)
        0:       0 [4363.3] (  6 ),  1 [3200.0] (  7 ),  2 [3200.0] (  8 )
                 3 [3200.0] (  9 ),  4 [3200.0] ( 10 ),  5 [3200.0] ( 11 )
        
System load averages (1min, 5min, 15min) : 1.7 %, 2.3 %, 2.2 %
Hyperthreading is enabled
HPC is enabled


Simulating `input.scs' on it075644.wks.bris.ac.uk at 11:56:29 AM, Tue Feb 13, 2024 (process id: 1697697).
Current working directory: /home/oj23092/VLSI_Design_Lab/Sim/tb_nand3/spectre/schematic/netlist
Command line:
     \
        /eda/cadence/2022-23/RHELx86/SPECTRE_21.10.751/tools.lnx86/bin/spectre  \
        -64 input.scs +escchars +log ../psf/spectre.out -format psfbin  \
        +rtsf -raw ../psf +aps +mt +lqtimeout 900 -maxw 5 -maxn 5  \
        +param /eda/cadence/ams/4.10/spectre/ams_range.lmts -env ade

Licensing Information:
[11:56:29.289730] Configured Lic search path (21.01-s002): 5280@ls-dc2-fen-p1.services.bris.ac.uk:5280@ls-dc2-fen-p0.services.bris.ac.uk

Licensing Information:
[11:56:29.159323] Periodic Lic check successful

Loading /eda/cadence/2022-23/RHELx86/SPECTRE_21.10.751/tools.lnx86/cmi/lib/64bit/5.0/libinfineon_sh.so ...
Loading /eda/cadence/2022-23/RHELx86/SPECTRE_21.10.751/tools.lnx86/cmi/lib/64bit/5.0/libphilips_o_sh.so ...
Loading /eda/cadence/2022-23/RHELx86/SPECTRE_21.10.751/tools.lnx86/cmi/lib/64bit/5.0/libphilips_sh.so ...
Loading /eda/cadence/2022-23/RHELx86/SPECTRE_21.10.751/tools.lnx86/cmi/lib/64bit/5.0/libsparam_sh.so ...
Loading /eda/cadence/2022-23/RHELx86/SPECTRE_21.10.751/tools.lnx86/cmi/lib/64bit/5.0/libstmodels_sh.so ...
Reading file:  /home/oj23092/VLSI_Design_Lab/Sim/tb_nand3/spectre/schematic/netlist/input.scs
Reading file:  /eda/cadence/ams/4.10/spectre/ams_range.lmts

Warning from spectre during read of parameter soft limits file `/eda/cadence/ams/4.10/spectre/ams_range.lmts', during circuit read-in.
    WARNING (SPECTRE-8360): line 1511: `ac' is an undefined primitive device.
    WARNING (SPECTRE-8360): line 1512: `ac' is an undefined primitive device.
    WARNING (SPECTRE-8360): line 1513: `ac' is an undefined primitive device.
    WARNING (SPECTRE-8360): line 1514: `ac' is an undefined primitive device.
    WARNING (SPECTRE-8360): line 1515: `ac' is an undefined primitive device.
        Further occurrences of this warning will be suppressed.

Reading file:  /eda/cadence/2022-23/RHELx86/SPECTRE_21.10.751/tools.lnx86/spectre/etc/configs/spectre.cfg
Reading file:  /eda/cadence/ams/4.10/spectre/c35/soac/soac.scs
Reading file:  /eda/cadence/ams/4.10/spectre/c35/soac/processOption.scs
Reading file:  /eda/cadence/ams/4.10/spectre/c35/soac/process.scs
Reading file:  /eda/cadence/ams/4.10/spectre/c35/soac/soac.va

Warning from spectre during AHDL read-in.
    WARNING (VACOMP-2435): The environment variable CDS_AHDLCMI_ENABLE is no longer supported. Therefore, the simulator will use the default compiled C code flow.

Reading link:  /eda/cadence/2022-23/RHELx86/SPECTRE_21.10.751/tools.lnx86/spectre/etc/ahdl/constants.h
Reading file:  /eda/cadence/2022-23/RHELx86/SPECTRE_21.10.751/tools.lnx86/spectre/etc/ahdl/constants.vams
Reading link:  /eda/cadence/2022-23/RHELx86/SPECTRE_21.10.751/tools.lnx86/spectre/etc/ahdl/discipline.h
Reading file:  /eda/cadence/2022-23/RHELx86/SPECTRE_21.10.751/tools.lnx86/spectre/etc/ahdl/disciplines.vams
Reading file:  /eda/cadence/ams/4.10/spectre/c35/processOption/C35B4C3.scs
Reading file:  /eda/cadence/ams/4.10/spectre/c35/soac/cmos53.scs
Reading file:  /eda/cadence/ams/4.10/spectre/c35/soac/res.scs
Reading file:  /eda/cadence/ams/4.10/spectre/c35/soac/cap.scs
Reading file:  /eda/cadence/ams/4.10/spectre/c35/soac/bip.scs
Reading file:  /eda/cadence/ams/4.10/spectre/c35/soac/ind.scs
Reading file:  /eda/cadence/ams/4.10/spectre/c35/soac/esddiode.scs
Time for NDB Parsing: CPU = 77.466 ms, elapsed = 277.253 ms.
Time accumulated: CPU = 133.208 ms, elapsed = 277.255 ms.
Peak resident memory used = 141 Mbytes.

TCP: opening server port it075644.wks.bris.ac.uk:44019
Existing shared object for module modn_ahdl is up to date.
Installed compiled interface for modn_ahdl.
Existing shared object for module modp_ahdl is up to date.
Installed compiled interface for modp_ahdl.
Time for Elaboration: CPU = 15.479 ms, elapsed = 18.204 ms.
Time accumulated: CPU = 148.752 ms, elapsed = 295.524 ms.
Peak resident memory used = 150 Mbytes.


Notice from spectre during hierarchy flattening.
    The value 'psf' specified for the 'checklimitdest' option will no longer be supported in future releases. Use 'spectre -h' to see other recommended values for the 'checklimitdest' option.


Time for EDB Visiting: CPU = 1.243 ms, elapsed = 1.48201 ms.
Time accumulated: CPU = 150.06 ms, elapsed = 297.071 ms.
Peak resident memory used = 152 Mbytes.

Loading /eda/cadence/2022-23/RHELx86/SPECTRE_21.10.751/tools.lnx86/mdl/lib/64bit/libSpectreEH_sh.so ...

Warning from spectre during initial setup.
    WARNING (SPECTRE-16460): SOAC_cvarm_vspsub:Specified subcircuit master `cvarm' was not found.
    WARNING (SPECTRE-16462): SOAC_cvarm_vspsub:Error in specification of subcircuit master. Assert is ignored.
    WARNING (SPECTRE-16460): SOAC_cvarm_vbs:Specified subcircuit master `cvarm' was not found.
    WARNING (SPECTRE-16462): SOAC_cvarm_vbs:Error in specification of subcircuit master. Assert is ignored.
    WARNING (SPECTRE-16460): SOAC_cvarm_vgb:Specified subcircuit master `cvarm' was not found.
    WARNING (SPECTRE-16462): SOAC_cvarm_vgb:Error in specification of subcircuit master. Assert is ignored.
    WARNING (SPECTRE-16460): SOAC_cvart_vspsub:Specified subcircuit master `cvart' was not found.
    WARNING (SPECTRE-16462): SOAC_cvart_vspsub:Error in specification of subcircuit master. Assert is ignored.
    WARNING (SPECTRE-16460): SOAC_cvart_vbs:Specified subcircuit master `cvart' was not found.
        Further occurrences of this warning will be suppressed.
    WARNING (SPECTRE-16462): SOAC_cvart_vbs:Error in specification of subcircuit master. Assert is ignored.
        Further occurrences of this warning will be suppressed.
Notice from spectre during initial setup.
    Ignorevaref=yes is ignored since all nodes are connected to Verilog-A modules.
Notice from spectre during topology check.
    Only one connection to the following 6 nodes:
        I0.MN2.psub!
        I0.MN1.psub!
        I0.MN0.psub!
        I0.MP2.psub!
        I0.MP1.psub!
        Further occurrences of this notice will be suppressed.
Notice from spectre during initial setup.
    Multithreading is disabled due to the size of the design being too small.


Global user options:
         psfversion = 1.4.0
            vabstol = 1e-06
            iabstol = 1e-12
               temp = 27
           homotopy = 5
              limit = delta
         compatible = spice2
               gmin = 1e-12
             rforce = 1
           maxnotes = 5
           maxwarns = 5
             digits = 5
               cols = 80
             pivrel = 0.001
           sensfile = ../psf/sens.output
     checklimitdest = psf
     enable_pre_ver = yes
      ignorezerovar = yes
               save = allpub
             reltol = 0.0001
               tnom = 27
             scalem = 1
              scale = 1

Scoped user options:

Circuit inventory:
              nodes 13
            bsim3v3 6     
          capacitor 1     
          modn_ahdl 3     
          modp_ahdl 3     
            vsource 4     

Analysis and control statement inventory:
               info 7     
               tran 1     

Output statements:
             .probe 0     
           .measure 0     
               save 0     

Design checks inventory:
          paramtest 6     
             assert 175   


Notice from spectre during initial setup.
    APS enabled.
    1 notice suppressed.
    72 warnings suppressed.

Time for parsing: CPU = 5.723 ms, elapsed = 223.057 ms.
Time accumulated: CPU = 155.836 ms, elapsed = 520.181 ms.
Peak resident memory used = 157 Mbytes.

~~~~~~~~~~~~~~~~~~~~~~
Pre-Simulation Summary
~~~~~~~~~~~~~~~~~~~~~~
   -   (APS) Multi-threading. The recommended number of threads is 1, consider adding +mt=1 on command line.
~~~~~~~~~~~~~~~~~~~~~~

Notice from spectre during transient analysis `tran'.
    No checklimit analysis defined for asserts. A default checklimit analysis 'SpectreChecklimitAnal' has been created with all asserts enabled.


************************************************
Transient Analysis `tran': time = (0 s -> 10 ns)
************************************************

Notice from spectre during IC analysis, during transient analysis `tran'.
    GminDC = 1 pS is large enough to noticeably affect the DC solution.
        dV(I0.net2) = 56.7285 mV
        Use the `gmin_check' option to eliminate or expand this report.
Warning from spectre during check, during IC analysis, during transient analysis `tran'.
    WARNING (CMI-2943): Parameter checks have been ignored because the valid value for parameter 'trise' could not be found in 'C0'.

DC simulation time: CPU = 387 us, elapsed = 391.96 us.

Opening the PSF file ../psf/tran.tran.tran ...
Important parameter values:
    start = 0 s
    outputstart = 0 s
    stop = 10 ns
    step = 10 ps
    maxstep = 100 ps
    ic = all
    useprevic = no
    skipdc = no
    reltol = 10e-06
    abstol(V) = 1 uV
    abstol(I) = 1 pA
    temp = 27 C
    tnom = 27 C
    tempeffects = all
    errpreset = conservative
    method = gear2only
    lteratio = 10
    relref = alllocal
    cmin = 0 F
    gmin = 1 pS
    rabsshort = 1 mOhm


Notice from spectre during transient analysis `tran'.
    Multithreading is disabled due to the size of the design being too small.


Output and IC/nodeset summary:
                 save   4       (current)
                 save   13      (voltage)

    tran: time = 252.3 ps    (2.52 %), step = 9.197 ps      (92 m%)
    tran: time = 778.5 ps    (7.78 %), step = 39.55 ps     (396 m%)

Warning from spectre at time = 1.01747 ns during transient analysis `tran'.
    WARNING (CMI-2139): I0.MN2: The bulk-drain junction current exceeds `imelt'.  The results computed by Spectre may be inaccurate because the junction current model has been linearized.
    WARNING (CMI-2144): I0.MN2: The bulk-drain junction current exceeds `imax'.
Notice from spectre at time = 1.02044 ns during transient analysis `tran'.
    I0.MN2: The bulk-drain junction leaves the linearized region.
    I0.MN2: The bulk-drain junction current no longer exceeds `imax'.

    tran: time = 1.255 ns    (12.5 %), step = 10.4 ps      (104 m%)
    tran: time = 1.805 ns    (18.1 %), step = 100 ps          (1 %)
SOAC: I0.MN0.soac_m1       modn V(B,PSUB): LEAVING@  0.00114329us ;
    tran: time = 2.251 ns    (22.5 %), step = 10.16 ps     (102 m%)
SOAC: I0.MN0.soac_m1       modn V(B,PSUB): ENTERING@ 0.00265664us duration:0.00151us ;
    tran: time = 2.762 ns    (27.6 %), step = 39.34 ps     (393 m%)

Warning from spectre at time = 3.01743 ns during transient analysis `tran'.
    WARNING (CMI-2139): I0.MN2: The bulk-drain junction current exceeds `imelt'.  The results computed by Spectre may be inaccurate because the junction current model has been linearized.
    WARNING (CMI-2144): I0.MN2: The bulk-drain junction current exceeds `imax'.
Notice from spectre at time = 3.02042 ns during transient analysis `tran'.
    I0.MN2: The bulk-drain junction leaves the linearized region.
    I0.MN2: The bulk-drain junction current no longer exceeds `imax'.

    tran: time = 3.254 ns    (32.5 %), step = 10.39 ps     (104 m%)
    tran: time = 3.804 ns      (38 %), step = 100 ps          (1 %)
SOAC: I0.MN0.soac_m1       modn V(B,PSUB): LEAVING@  0.00314328us ;
    tran: time = 4.251 ns    (42.5 %), step = 10.16 ps     (102 m%)
SOAC: I0.MN0.soac_m1       modn V(B,PSUB): ENTERING@ 0.00465664us duration:0.00151us ;
    tran: time = 4.762 ns    (47.6 %), step = 39.34 ps     (393 m%)

Warning from spectre at time = 5.01743 ns during transient analysis `tran'.
    WARNING (CMI-2139): I0.MN2: The bulk-drain junction current exceeds `imelt'.  The results computed by Spectre may be inaccurate because the junction current model has been linearized.
    WARNING (CMI-2144): I0.MN2: The bulk-drain junction current exceeds `imax'.
Notice from spectre at time = 5.02042 ns during transient analysis `tran'.
    I0.MN2: The bulk-drain junction leaves the linearized region.
    I0.MN2: The bulk-drain junction current no longer exceeds `imax'.

    tran: time = 5.254 ns    (52.5 %), step = 10.39 ps     (104 m%)
    tran: time = 5.804 ns      (58 %), step = 100 ps          (1 %)
SOAC: I0.MN0.soac_m1       modn V(B,PSUB): LEAVING@  0.00514328us ;
    tran: time = 6.251 ns    (62.5 %), step = 10.16 ps     (102 m%)
SOAC: I0.MN0.soac_m1       modn V(B,PSUB): ENTERING@ 0.00665664us duration:0.00151us ;
    tran: time = 6.762 ns    (67.6 %), step = 39.34 ps     (393 m%)

Warning from spectre at time = 7.01743 ns during transient analysis `tran'.
    WARNING (CMI-2139): I0.MN2: The bulk-drain junction current exceeds `imelt'.  The results computed by Spectre may be inaccurate because the junction current model has been linearized.
    WARNING (CMI-2144): I0.MN2: The bulk-drain junction current exceeds `imax'.
Notice from spectre at time = 7.02042 ns during transient analysis `tran'.
    I0.MN2: The bulk-drain junction leaves the linearized region.
    I0.MN2: The bulk-drain junction current no longer exceeds `imax'.

    tran: time = 7.254 ns    (72.5 %), step = 10.39 ps     (104 m%)
    tran: time = 7.804 ns      (78 %), step = 100 ps          (1 %)
SOAC: I0.MN0.soac_m1       modn V(B,PSUB): LEAVING@  0.00714328us ;
    tran: time = 8.251 ns    (82.5 %), step = 10.16 ps     (102 m%)
SOAC: I0.MN0.soac_m1       modn V(B,PSUB): ENTERING@ 0.00865664us duration:0.00151us ;
    tran: time = 8.762 ns    (87.6 %), step = 39.34 ps     (393 m%)

Warning from spectre at time = 9.01743 ns during transient analysis `tran'.
    WARNING (CMI-2139): I0.MN2: The bulk-drain junction current exceeds `imelt'.  The results computed by Spectre may be inaccurate because the junction current model has been linearized.
        Further occurrences of this warning will be suppressed.
    WARNING (CMI-2144): I0.MN2: The bulk-drain junction current exceeds `imax'.
        Further occurrences of this warning will be suppressed.
Notice from spectre at time = 9.02042 ns during transient analysis `tran'.
    I0.MN2: The bulk-drain junction leaves the linearized region.
        Further occurrences of this notice will be suppressed.
    I0.MN2: The bulk-drain junction current no longer exceeds `imax'.
        Further occurrences of this notice will be suppressed.

    tran: time = 9.254 ns    (92.5 %), step = 10.39 ps     (104 m%)
    tran: time = 9.804 ns      (98 %), step = 100 ps          (1 %)
Number of accepted tran steps =             1337

Maximum value achieved for any signal of each quantity: 
V: V(I0.net1) = 3.923 V
I: I(V0:p) = 1.696 mA

~~~~~~~~~~~~~~~~~~~~~~~~~~~~~~~~~
Post-Transient Simulation Summary
~~~~~~~~~~~~~~~~~~~~~~~~~~~~~~~~~
   -   To further speed up simulation, consider
          add ++aps on command line
   -   Non-default settings that could significantly slow down simulation
          errpreset = conservative, default moderate
          reltol = 10e-06, default 100e-06 (conservative)
   -   Features that may significantly slowing down simulation
          asserts = 47.5965 ms
~~~~~~~~~~~~~~~~~~~~~~~~~~~~~~~~~


During simulation, the CPU load for active processors is :
         0 (19.7 %)      1 (4.5 %)       2 (1.6 %)       3 (3.1 %)
         4 (27.3 %)      5 (3.0 %)       6 (15.6 %)      7 (6.0 %)
         8 (3.0 %)       9 (9.4 %)      11 (4.6 %)      
        Total: 97.8%
Initial condition solution time: CPU = 409 us, elapsed = 415.087 us.
Intrinsic tran analysis time:    CPU = 147.231 ms, elapsed = 155.164 ms.
Total time required for tran analysis `tran': CPU = 149.815 ms, elapsed = 172.039 ms, util. = 87.1%.
Time accumulated: CPU = 310.417 ms, elapsed = 700.467 ms.
Peak resident memory used = 166 Mbytes.

finalTimeOP: writing operating point information to rawfile.

Opening the PSF file ../psf/finalTimeOP.info ...
modelParameter: writing model parameter values to rawfile.

Opening the PSF file ../psf/modelParameter.info ...
element: writing instance parameter values to rawfile.

Opening the PSF file ../psf/element.info ...
outputParameter: writing output parameter values to rawfile.

Opening the PSF file ../psf/outputParameter.info ...
designParamVals: writing netlist parameters to rawfile.

Opening the PSFASCII file ../psf/designParamVals.info ...
primitives: writing primitives to rawfile.

Opening the PSFASCII file ../psf/primitives.info.primitives ...
subckts: writing subcircuits to rawfile.

Opening the PSFASCII file ../psf/subckts.info.subckts ...
Licensing Information:
Lic Summary:
[11:56:30.196312] Cdslmd servers:5280@ls-dc2-fen-p1.services.bris.ac.uk:5280@ls-dc2-fen-p0.services.bris.ac.uk
[11:56:30.196330] Feature usage summary:
[11:56:30.196331] Virtuoso_Multi_mode_Simulation


Aggregate audit (11:56:30 AM, Tue Feb 13, 2024):
Time used: CPU = 321 ms, elapsed = 729 ms, util. = 44.1%.
Time spent in licensing: elapsed = 144 ms, percentage of total = 19.8%.
Peak memory used = 168 Mbytes.
Simulation started at: 11:56:29 AM, Tue Feb 13, 2024, ended at: 11:56:30 AM, Tue Feb 13, 2024, with elapsed time (wall clock): 729 ms.
spectre completes with 0 errors, 27 warnings, and 20 notices.
