
Spectre (R) Circuit Simulator
Version 21.1.0.751.isr19 64bit -- 22 May 2023
Copyright (C) 1989-2023 Cadence Design Systems, Inc. All rights reserved worldwide. Cadence and Spectre are registered trademarks of Cadence Design Systems, Inc. All others are the property of their respective holders.

Includes RSA BSAFE(R) Cryptographic or Security Protocol Software from RSA Security, Inc.

User: oj23092   Host: it075891.wks.bris.ac.uk   HostID: DE89A69F   PID: 234097
Memory  available: 12.6249 GB  physical: 16.2980 GB
Linux   : Rocky Linux release 8.9 (Green Obsidian)
CPU Type: Intel(R) Core(TM) i7-8700 CPU @ 3.20GHz
        Socket: Processors [Frequency] (Hyperthreaded Processor)
        0:       0 [3200.0] (  6 ),  1 [3200.0] (  7 ),  2 [3200.0] (  8 )
                 3 [3200.0] (  9 ),  4 [3200.0] ( 10 ),  5 [3200.0] ( 11 )
        
System load averages (1min, 5min, 15min) : 1.7 %, 1.0 %, 0.8 %
Hyperthreading is enabled
HPC is enabled


Simulating `input.scs' on it075891.wks.bris.ac.uk at 9:19:33 PM, Sat Apr 20, 2024 (process id: 234097).
Current working directory: /home/oj23092/VLSI_Design_Lab/Sim/lab2024/tb_ycircuit/adexl/results/data/MonteCarlo.0/1/lab2024:tb_ycircuit:1/groupRunDataDir/netlist
Command line:
     \
        /eda/cadence/2022-23/RHELx86/SPECTRE_21.10.751/tools.lnx86/bin/spectre  \
        -64 input.scs +escchars +log ../psf/spectre.out -format psfbin  \
        +rtsf -raw ../psf +aps +mt +lqtimeout 900 -maxw 5 -maxn 5  \
        +param /eda/cadence/ams/4.10/spectre/ams_range.lmts -env ade  \
        -ahdllibdir  \
        /home/oj23092/VLSI_Design_Lab/Sim/lab2024/tb_ycircuit/adexl/results/data/MonteCarlo.0/sharedData/Job1/ahdl/input.ahdlSimDB  \
        +logstatus

Licensing Information:
[21:19:33.289690] Configured Lic search path (21.01-s002): 5280@ls-dc2-fen-p1.services.bris.ac.uk:5280@ls-dc2-fen-p0.services.bris.ac.uk

Licensing Information:
[21:19:33.288649] Periodic Lic check successful

Loading /eda/cadence/2022-23/RHELx86/SPECTRE_21.10.751/tools.lnx86/cmi/lib/64bit/5.0/libinfineon_sh.so ...
Loading /eda/cadence/2022-23/RHELx86/SPECTRE_21.10.751/tools.lnx86/cmi/lib/64bit/5.0/libphilips_o_sh.so ...
Loading /eda/cadence/2022-23/RHELx86/SPECTRE_21.10.751/tools.lnx86/cmi/lib/64bit/5.0/libphilips_sh.so ...
Loading /eda/cadence/2022-23/RHELx86/SPECTRE_21.10.751/tools.lnx86/cmi/lib/64bit/5.0/libsparam_sh.so ...
Loading /eda/cadence/2022-23/RHELx86/SPECTRE_21.10.751/tools.lnx86/cmi/lib/64bit/5.0/libstmodels_sh.so ...
Reading file:  /home/oj23092/VLSI_Design_Lab/Sim/lab2024/tb_ycircuit/adexl/results/data/MonteCarlo.0/1/lab2024:tb_ycircuit:1/groupRunDataDir/netlist/input.scs
Reading file:  /eda/cadence/ams/4.10/spectre/ams_range.lmts

Warning from spectre during read of parameter soft limits file `/eda/cadence/ams/4.10/spectre/ams_range.lmts', during circuit read-in.
    WARNING (SPECTRE-8360): line 1511: `ac' is an undefined primitive device.
    WARNING (SPECTRE-8360): line 1512: `ac' is an undefined primitive device.
    WARNING (SPECTRE-8360): line 1513: `ac' is an undefined primitive device.
    WARNING (SPECTRE-8360): line 1514: `ac' is an undefined primitive device.
    WARNING (SPECTRE-8360): line 1515: `ac' is an undefined primitive device.
        Further occurrences of this warning will be suppressed.

Reading file:  /eda/cadence/2022-23/RHELx86/SPECTRE_21.10.751/tools.lnx86/spectre/etc/configs/spectre.cfg
Reading file:  /eda/cadence/ams/4.10/spectre/c35/soac/soac.scs
Reading file:  /eda/cadence/ams/4.10/spectre/c35/soac/res.scs
Reading file:  /eda/cadence/ams/4.10/spectre/c35/soac/bip.scs
Reading file:  /eda/cadence/ams/4.10/spectre/c35/soac/cap.scs
Reading file:  /eda/cadence/ams/4.10/spectre/c35/soac/esddiode.scs
Reading file:  /eda/cadence/ams/4.10/spectre/c35/soac/ind.scs
Reading file:  /eda/cadence/ams/4.10/spectre/c35/soac/cmos53.scs
Reading file:  /eda/cadence/ams/4.10/spectre/c35/soac/processOption.scs
Reading file:  /eda/cadence/ams/4.10/spectre/c35/soac/process.scs
Reading file:  /eda/cadence/ams/4.10/spectre/c35/soac/soac.va

Warning from spectre during AHDL read-in.
    WARNING (VACOMP-2435): The environment variable CDS_AHDLCMI_ENABLE is no longer supported. Therefore, the simulator will use the default compiled C code flow.

Reading link:  /eda/cadence/2022-23/RHELx86/SPECTRE_21.10.751/tools.lnx86/spectre/etc/ahdl/constants.h
Reading file:  /eda/cadence/2022-23/RHELx86/SPECTRE_21.10.751/tools.lnx86/spectre/etc/ahdl/constants.vams
Reading link:  /eda/cadence/2022-23/RHELx86/SPECTRE_21.10.751/tools.lnx86/spectre/etc/ahdl/discipline.h
Reading file:  /eda/cadence/2022-23/RHELx86/SPECTRE_21.10.751/tools.lnx86/spectre/etc/ahdl/disciplines.vams
Reading file:  /eda/cadence/ams/4.10/spectre/c35/processOption/C35B4C3.scs
Time for NDB Parsing: CPU = 73.047 ms, elapsed = 302.375 ms.
Time accumulated: CPU = 133.095 ms, elapsed = 302.377 ms.
Peak resident memory used = 164 Mbytes.

TCP: opening server port it075891.wks.bris.ac.uk:36467
Existing shared object for module modp_ahdl is up to date.
Installed compiled interface for modp_ahdl.
Existing shared object for module modn_ahdl is up to date.
Installed compiled interface for modn_ahdl.
Time for Elaboration: CPU = 20.04 ms, elapsed = 28.8091 ms.
Time accumulated: CPU = 153.2 ms, elapsed = 331.249 ms.
Peak resident memory used = 173 Mbytes.


Notice from spectre during hierarchy flattening.
    The value 'psf' specified for the 'checklimitdest' option will no longer be supported in future releases. Use 'spectre -h' to see other recommended values for the 'checklimitdest' option.


Time for EDB Visiting: CPU = 1.368 ms, elapsed = 1.76883 ms.
Time accumulated: CPU = 154.635 ms, elapsed = 333.083 ms.
Peak resident memory used = 175 Mbytes.

Loading /eda/cadence/2022-23/RHELx86/SPECTRE_21.10.751/tools.lnx86/mdl/lib/64bit/libSpectreEH_sh.so ...

Warning from spectre during initial setup.
    WARNING (SPECTRE-16460): SOAC_cvarm_vspsub:Specified subcircuit master `cvarm' was not found.
    WARNING (SPECTRE-16462): SOAC_cvarm_vspsub:Error in specification of subcircuit master. Assert is ignored.
    WARNING (SPECTRE-16460): SOAC_cvarm_vbs:Specified subcircuit master `cvarm' was not found.
    WARNING (SPECTRE-16462): SOAC_cvarm_vbs:Error in specification of subcircuit master. Assert is ignored.
    WARNING (SPECTRE-16460): SOAC_cvarm_vgb:Specified subcircuit master `cvarm' was not found.
    WARNING (SPECTRE-16462): SOAC_cvarm_vgb:Error in specification of subcircuit master. Assert is ignored.
    WARNING (SPECTRE-16460): SOAC_cvart_vspsub:Specified subcircuit master `cvart' was not found.
    WARNING (SPECTRE-16462): SOAC_cvart_vspsub:Error in specification of subcircuit master. Assert is ignored.
    WARNING (SPECTRE-16460): SOAC_cvart_vbs:Specified subcircuit master `cvart' was not found.
        Further occurrences of this warning will be suppressed.
    WARNING (SPECTRE-16462): SOAC_cvart_vbs:Error in specification of subcircuit master. Assert is ignored.
        Further occurrences of this warning will be suppressed.
Notice from spectre during initial setup.
    Ignorevaref=yes is ignored since all nodes are connected to Verilog-A modules.
Notice from spectre during topology check.
    Only one connection to the following 8 nodes:
        I0.MPD.psub!
        I0.MPC.psub!
        I0.MPB.psub!
        I0.MPA.psub!
        I0.MNC.psub!
        Further occurrences of this notice will be suppressed.
Notice from spectre during initial setup.
    Multithreading is disabled due to the size of the design being too small.


Global user options:
         psfversion = 1.4.0
            vabstol = 1e-06
            iabstol = 1e-12
               temp = 27
           homotopy = 5
              limit = delta
         compatible = spice2
               gmin = 1e-12
             rforce = 1
           maxnotes = 5
           maxwarns = 5
             digits = 5
               cols = 80
             pivrel = 0.001
           sensfile = ../psf/sens.output
     checklimitdest = psf
     enable_pre_ver = yes
      ignorezerovar = yes
               save = allpub
             reltol = 0.0001
               tnom = 27
             scalem = 1
              scale = 1

Scoped user options:

Circuit inventory:
              nodes 17
            bsim3v3 8     
          capacitor 1     
          modn_ahdl 4     
          modp_ahdl 4     
            vsource 5     

Analysis and control statement inventory:
               info 7     
         montecarlo 1     
               tran 1     

Output statements:
             .probe 0     
           .measure 0     
               save 1     

Design checks inventory:
          paramtest 8     
             assert 175   


Notice from spectre during initial setup.
    APS enabled.
    1 notice suppressed.
    72 warnings suppressed.

Time for parsing: CPU = 5.62 ms, elapsed = 338.134 ms.
Time accumulated: CPU = 160.31 ms, elapsed = 671.272 ms.
Peak resident memory used = 180 Mbytes.

~~~~~~~~~~~~~~~~~~~~~~
Pre-Simulation Summary
~~~~~~~~~~~~~~~~~~~~~~
   -   (APS) Multi-threading. The recommended number of threads is 1, consider adding +mt=1 on command line.
~~~~~~~~~~~~~~~~~~~~~~

**************************************************
Monte Carlo Analysis `mc1': iteration = (1 -> 200)
**************************************************
Important parameter values:
    seed = 12345
    sampling = lds
    variations = all
    firstrun = 1
    numruns = 200
    nullmfactorcorrelation = no
    donominal = no
    method = standard
Opening iteration number and data-directory mapping file:  /home/oj23092/VLSI_Design_Lab/Sim/lab2024/tb_ycircuit/adexl/results/data/MonteCarlo.0/1/lab2024:tb_ycircuit:1/groupRunDataDir/netlist/../psf/mc1.mapping

Statistical parameters:
    Defined process parameters: 629
    Defined mismatch parameters (subckt based): 86
    Non-referenced mismatch parameters: 86
    Number of random variables: 629
    Gaussian truncation for process parameters: 4.00 sigma
    Gaussian truncation for mismatch parameters: 4.00 sigma


Opening the PSF file ../psf/mc1_tran.montecarlo ...

Opening the PSF file ../psf/mc1_finalTimeOP.montecarlo ...

Opening the PSF file ../psf/mc1_modelParameter.montecarlo ...

Opening the PSF file ../psf/mc1_element.montecarlo ...

Opening the PSF file ../psf/mc1_outputParameter.montecarlo ...

Opening the PSF file ../psf/mc1_designParamVals.montecarlo ...

Opening the PSF file ../psf/mc1_primitives.montecarlo ...

Opening the PSF file ../psf/mc1_subckts.montecarlo ...

**** Performing monte carlo loop for `mc1'

1              0.00% 

Notice from spectre at iteration = 1 during transient analysis `tran', during Monte Carlo analysis `mc1'.
    No checklimit analysis defined for asserts. A default checklimit analysis 'SpectreChecklimitAnal' has been created with all asserts enabled.


************************************************
Transient Analysis `tran': time = (0 s -> 20 ns)
************************************************

Opening the PSF file ../psf/mc1_separate/001/tran.tran.tran ...

Notice from spectre at iteration = 1 during IC analysis, during transient analysis `tran', during Monte Carlo analysis `mc1'.
    GminDC = 1 pS is large enough to noticeably affect the DC solution.
        dV(I0.net2) = 62.8848 mV
        Use the `gmin_check' option to eliminate or expand this report.
Warning from spectre at iteration = 1 during check, during IC analysis, during transient analysis `tran', during Monte Carlo analysis `mc1'.
    WARNING (CMI-2943): Parameter checks have been ignored because the valid value for parameter 'trise' could not be found in 'C0'.

DC simulation time: CPU = 431 us, elapsed = 434.16 us.
Important parameter values:
    start = 0 s
    outputstart = 0 s
    stop = 20 ns
    step = 20 ps
    maxstep = 200 ps
    ic = all
    useprevic = no
    skipdc = no
    reltol = 10e-06
    abstol(V) = 1 uV
    abstol(I) = 1 pA
    temp = 27 C
    tnom = 27 C
    tempeffects = all
    errpreset = conservative
    method = gear2only
    lteratio = 10
    relref = alllocal
    cmin = 0 F
    gmin = 1 pS
    rabsshort = 1 mOhm


Notice from spectre at iteration = 1 during transient analysis `tran', during Monte Carlo analysis `mc1'.
    Multithreading is disabled due to the size of the design being too small.


Output and IC/nodeset summary:
                 save   5       (current)
                 save   17      (voltage)


Opening the PSF file ../psf/mc1_tranViolations.montecarlo ...
    tran: time = 525.5 ps    (2.63 %), step = 28.93 ps     (145 m%)
    tran: time = 1.518 ns    (7.59 %), step = 37.77 ps     (189 m%)
    tran: time = 2.513 ns    (12.6 %), step = 28.77 ps     (144 m%)
    tran: time = 3.532 ns    (17.7 %), step = 41.65 ps     (208 m%)
    tran: time = 4.504 ns    (22.5 %), step = 20.65 ps     (103 m%)
    tran: time = 5.511 ns    (27.6 %), step = 18.99 ps      (95 m%)
SOAC: I0.MND.soac_m1       modn V(B,PSUB): LEAVING@  0.00500272us ;
SOAC: I0.MNA.soac_m1       modn V(B,PSUB): LEAVING@  0.00500732us ;
SOAC: I0.MNA.soac_m1       modn V(B,PSUB): ENTERING@ 0.00618968us duration:0.00118us ;
SOAC: I0.MND.soac_m1       modn V(B,PSUB): ENTERING@ 0.00619026us duration:0.00119us ;
    tran: time = 6.515 ns    (32.6 %), step = 18.12 ps    (90.6 m%)
    tran: time = 7.51 ns     (37.6 %), step = 26.42 ps     (132 m%)
    tran: time = 8.509 ns    (42.5 %), step = 17.21 ps      (86 m%)
    tran: time = 9.515 ns    (47.6 %), step = 20.86 ps     (104 m%)
SOAC: I0.MND.soac_m1       modn V(B,PSUB): LEAVING@  0.00900268us ;
SOAC: I0.MNA.soac_m1       modn V(B,PSUB): LEAVING@  0.00900732us ;
SOAC: I0.MNA.soac_m1       modn V(B,PSUB): ENTERING@ 0.0101657us duration:0.00116us ;
SOAC: I0.MND.soac_m1       modn V(B,PSUB): ENTERING@ 0.0101831us duration:0.00118us ;
    tran: time = 10.5 ns     (52.5 %), step = 13.15 ps    (65.7 m%)
SOAC: I0.MND.soac_m1       modn V(B,PSUB): LEAVING@  0.0102674us ;
SOAC: I0.MND.soac_m1       modn V(B,PSUB): ENTERING@ 0.0114158us duration:0.00115us ;
    tran: time = 11.51 ns    (57.6 %), step = 21.7 ps      (108 m%)
    tran: time = 12.51 ns    (62.6 %), step = 14.77 ps    (73.9 m%)
SOAC: I0.MND.soac_m1       modn V(B,PSUB): LEAVING@  0.0122439us ;
    tran: time = 13.51 ns    (67.5 %), step = 24.81 ps     (124 m%)
    tran: time = 14.52 ns    (72.6 %), step = 27.35 ps     (137 m%)
SOAC: I0.MND.soac_m1       modn V(B,PSUB): ENTERING@ 0.015425us duration:0.00318us ;
    tran: time = 15.52 ns    (77.6 %), step = 22.69 ps     (113 m%)
    tran: time = 16.51 ns    (82.6 %), step = 14.92 ps    (74.6 m%)
SOAC: I0.MND.soac_m1       modn V(B,PSUB): LEAVING@  0.0162439us ;
    tran: time = 17.51 ns    (87.5 %), step = 24.9 ps      (125 m%)
    tran: time = 18.52 ns    (92.6 %), step = 27.32 ps     (137 m%)
SOAC: I0.MND.soac_m1       modn V(B,PSUB): ENTERING@ 0.019425us duration:0.00318us ;
    tran: time = 19.52 ns    (97.6 %), step = 22.68 ps     (113 m%)
Number of accepted tran steps =             2619

Maximum value achieved for any signal of each quantity: 
V: V(I0.net1) = 3.628 V
I: I(V:p) = 326 uA

~~~~~~~~~~~~~~~~~~~~~~~~~~~~~~~~~
Post-Transient Simulation Summary
~~~~~~~~~~~~~~~~~~~~~~~~~~~~~~~~~
   -   To further speed up simulation, consider
          add ++aps on command line
   -   Non-default settings that could significantly slow down simulation
          errpreset = conservative, default moderate
          reltol = 10e-06, default 100e-06 (conservative)
   -   Features that may significantly slowing down simulation
          asserts = 59.3872 ms
~~~~~~~~~~~~~~~~~~~~~~~~~~~~~~~~~


During simulation, the CPU load for active processors is :
         0 (4.1 %)       1 (11.5 %)      2 (10.4 %)      3 (24.7 %)
         4 (1.0 %)       6 (1.0 %)       7 (1.0 %)       8 (2.0 %)
         9 (2.1 %)      10 (17.3 %)     11 (4.2 %)      
        Total: 79.5%
Initial condition solution time: CPU = 452 us, elapsed = 454.903 us.
Intrinsic tran analysis time:    CPU = 279.55 ms, elapsed = 294.339 ms.
Total time required for tran analysis `tran': CPU = 282.378 ms, elapsed = 313.94 ms, util. = 89.9%.
Time accumulated: CPU = 461.435 ms, elapsed = 1.02531 s.
Peak resident memory used = 196 Mbytes.

finalTimeOP: writing operating point information to rawfile.

Opening the PSF file ../psf/mc1_separate/001/finalTimeOP.info ...
modelParameter: writing model parameter values to rawfile.

Opening the PSF file ../psf/mc1_separate/001/modelParameter.info ...
element: writing instance parameter values to rawfile.

Opening the PSF file ../psf/mc1_separate/001/element.info ...
outputParameter: writing output parameter values to rawfile.

Opening the PSF file ../psf/mc1_separate/001/outputParameter.info ...
designParamVals: writing netlist parameters to rawfile.

Opening the PSFASCII file ../psf/mc1_separate/001/designParamVals.info ...
primitives: writing primitives to rawfile.

Opening the PSFASCII file ../psf/mc1_separate/001/primitives.info.primitives ...
subckts: writing subcircuits to rawfile.

Opening the PSFASCII file ../psf/mc1_separate/001/subckts.info.subckts ...
2              0.50% 

************************************************
Transient Analysis `tran': time = (0 s -> 20 ns)
************************************************

Opening the PSF file ../psf/mc1_separate/002/tran.tran.tran ...

Notice from spectre during IC analysis, during transient analysis `tran', during Monte Carlo analysis `mc1'.
    GminDC = 1 pS is large enough to noticeably affect the DC solution.
        dV(I0.net2) = 62.8848 mV
        Use the `gmin_check' option to eliminate or expand this report.
Warning from spectre during check, during IC analysis, during transient analysis `tran', during Monte Carlo analysis `mc1'.
    WARNING (CMI-2943): Parameter checks have been ignored because the valid value for parameter 'trise' could not be found in 'C0'.

DC simulation time: CPU = 346 us, elapsed = 348.806 us.
Important parameter values:
    start = 0 s
    outputstart = 0 s
    stop = 20 ns
    step = 20 ps
    maxstep = 200 ps
    ic = all
    useprevic = no
    skipdc = no
    reltol = 10e-06
    abstol(V) = 1 uV
    abstol(I) = 1 pA
    temp = 27 C
    tnom = 27 C
    tempeffects = all
    errpreset = conservative
    method = gear2only
    lteratio = 10
    relref = alllocal
    cmin = 0 F
    gmin = 1 pS
    rabsshort = 1 mOhm


Notice from spectre during transient analysis `tran', during Monte Carlo analysis `mc1'.
    Multithreading is disabled due to the size of the design being too small.


Output and IC/nodeset summary:
                 save   5       (current)
                 save   17      (voltage)

    tran: time = 525.5 ps    (2.63 %), step = 28.93 ps     (145 m%)
    tran: time = 1.518 ns    (7.59 %), step = 37.77 ps     (189 m%)
    tran: time = 2.513 ns    (12.6 %), step = 28.77 ps     (144 m%)
    tran: time = 3.532 ns    (17.7 %), step = 41.65 ps     (208 m%)
    tran: time = 4.504 ns    (22.5 %), step = 20.65 ps     (103 m%)
    tran: time = 5.511 ns    (27.6 %), step = 18.99 ps      (95 m%)
SOAC: I0.MND.soac_m1       modn V(B,PSUB): LEAVING@  0.00500272us ;
SOAC: I0.MNA.soac_m1       modn V(B,PSUB): LEAVING@  0.00500732us ;
SOAC: I0.MNA.soac_m1       modn V(B,PSUB): ENTERING@ 0.00618968us duration:0.00118us ;
SOAC: I0.MND.soac_m1       modn V(B,PSUB): ENTERING@ 0.00619026us duration:0.00119us ;
    tran: time = 6.515 ns    (32.6 %), step = 18.12 ps    (90.6 m%)
    tran: time = 7.51 ns     (37.6 %), step = 26.42 ps     (132 m%)
    tran: time = 8.509 ns    (42.5 %), step = 17.21 ps      (86 m%)
    tran: time = 9.515 ns    (47.6 %), step = 20.86 ps     (104 m%)
SOAC: I0.MND.soac_m1       modn V(B,PSUB): LEAVING@  0.00900268us ;
SOAC: I0.MNA.soac_m1       modn V(B,PSUB): LEAVING@  0.00900732us ;
SOAC: I0.MNA.soac_m1       modn V(B,PSUB): ENTERING@ 0.0101657us duration:0.00116us ;
SOAC: I0.MND.soac_m1       modn V(B,PSUB): ENTERING@ 0.0101831us duration:0.00118us ;
    tran: time = 10.5 ns     (52.5 %), step = 13.15 ps    (65.7 m%)
SOAC: I0.MND.soac_m1       modn V(B,PSUB): LEAVING@  0.0102674us ;
SOAC: I0.MND.soac_m1       modn V(B,PSUB): ENTERING@ 0.0114158us duration:0.00115us ;
    tran: time = 11.51 ns    (57.6 %), step = 21.7 ps      (108 m%)
    tran: time = 12.51 ns    (62.6 %), step = 14.77 ps    (73.9 m%)
SOAC: I0.MND.soac_m1       modn V(B,PSUB): LEAVING@  0.0122439us ;
    tran: time = 13.51 ns    (67.5 %), step = 24.81 ps     (124 m%)
    tran: time = 14.52 ns    (72.6 %), step = 27.35 ps     (137 m%)
SOAC: I0.MND.soac_m1       modn V(B,PSUB): ENTERING@ 0.015425us duration:0.00318us ;
    tran: time = 15.52 ns    (77.6 %), step = 22.69 ps     (113 m%)
    tran: time = 16.51 ns    (82.6 %), step = 14.92 ps    (74.6 m%)
SOAC: I0.MND.soac_m1       modn V(B,PSUB): LEAVING@  0.0162439us ;
    tran: time = 17.51 ns    (87.5 %), step = 24.9 ps      (125 m%)
    tran: time = 18.52 ns    (92.6 %), step = 27.32 ps     (137 m%)
SOAC: I0.MND.soac_m1       modn V(B,PSUB): ENTERING@ 0.019425us duration:0.00318us ;
    tran: time = 19.52 ns    (97.6 %), step = 22.68 ps     (113 m%)
Number of accepted tran steps =             2619

Maximum value achieved for any signal of each quantity: 
V: V(I0.net1) = 3.628 V
I: I(V:p) = 326 uA

~~~~~~~~~~~~~~~~~~~~~~~~~~~~~~~~~
Post-Transient Simulation Summary
~~~~~~~~~~~~~~~~~~~~~~~~~~~~~~~~~
   -   To further speed up simulation, consider
          add ++aps on command line
   -   Non-default settings that could significantly slow down simulation
          errpreset = conservative, default moderate
          reltol = 10e-06, default 100e-06 (conservative)
~~~~~~~~~~~~~~~~~~~~~~~~~~~~~~~~~


During simulation, the CPU load for active processors is :
         0 (3.1 %)       1 (8.5 %)       2 (8.5 %)       3 (37.2 %)
         4 (1.6 %)       8 (1.5 %)       9 (1.6 %)      10 (13.1 %)
        11 (4.7 %)      
        Total: 81.2%
Initial condition solution time: CPU = 363 us, elapsed = 365.973 us.
Intrinsic tran analysis time:    CPU = 243.292 ms, elapsed = 253.837 ms.
Total time required for tran analysis `tran': CPU = 244.884 ms, elapsed = 264.404 ms, util. = 92.6%.
Time accumulated: CPU = 719.372 ms, elapsed = 1.33436 s.
Peak resident memory used = 197 Mbytes.

finalTimeOP: writing operating point information to rawfile.

Opening the PSF file ../psf/mc1_separate/002/finalTimeOP.info ...
modelParameter: writing model parameter values to rawfile.

Opening the PSF file ../psf/mc1_separate/002/modelParameter.info ...
element: writing instance parameter values to rawfile.

Opening the PSF file ../psf/mc1_separate/002/element.info ...
outputParameter: writing output parameter values to rawfile.

Opening the PSF file ../psf/mc1_separate/002/outputParameter.info ...
designParamVals: writing netlist parameters to rawfile.

Opening the PSFASCII file ../psf/mc1_separate/002/designParamVals.info ...
primitives: writing primitives to rawfile.

Opening the PSFASCII file ../psf/mc1_separate/002/primitives.info.primitives ...
subckts: writing subcircuits to rawfile.

Opening the PSFASCII file ../psf/mc1_separate/002/subckts.info.subckts ...
3              1.01% 

************************************************
Transient Analysis `tran': time = (0 s -> 20 ns)
************************************************

Opening the PSF file ../psf/mc1_separate/003/tran.tran.tran ...

Notice from spectre during IC analysis, during transient analysis `tran', during Monte Carlo analysis `mc1'.
    GminDC = 1 pS is large enough to noticeably affect the DC solution.
        dV(I0.net2) = 62.8848 mV
        Use the `gmin_check' option to eliminate or expand this report.
Warning from spectre during check, during IC analysis, during transient analysis `tran', during Monte Carlo analysis `mc1'.
    WARNING (CMI-2943): Parameter checks have been ignored because the valid value for parameter 'trise' could not be found in 'C0'.

DC simulation time: CPU = 337 us, elapsed = 335.932 us.
Important parameter values:
    start = 0 s
    outputstart = 0 s
    stop = 20 ns
    step = 20 ps
    maxstep = 200 ps
    ic = all
    useprevic = no
    skipdc = no
    reltol = 10e-06
    abstol(V) = 1 uV
    abstol(I) = 1 pA
    temp = 27 C
    tnom = 27 C
    tempeffects = all
    errpreset = conservative
    method = gear2only
    lteratio = 10
    relref = alllocal
    cmin = 0 F
    gmin = 1 pS
    rabsshort = 1 mOhm


Notice from spectre during transient analysis `tran', during Monte Carlo analysis `mc1'.
    Multithreading is disabled due to the size of the design being too small.


Output and IC/nodeset summary:
                 save   5       (current)
                 save   17      (voltage)

    tran: time = 525.5 ps    (2.63 %), step = 28.93 ps     (145 m%)
    tran: time = 1.518 ns    (7.59 %), step = 37.77 ps     (189 m%)
    tran: time = 2.513 ns    (12.6 %), step = 28.77 ps     (144 m%)
    tran: time = 3.532 ns    (17.7 %), step = 41.65 ps     (208 m%)
    tran: time = 4.504 ns    (22.5 %), step = 20.65 ps     (103 m%)
    tran: time = 5.511 ns    (27.6 %), step = 18.99 ps      (95 m%)
SOAC: I0.MND.soac_m1       modn V(B,PSUB): LEAVING@  0.00500272us ;
SOAC: I0.MNA.soac_m1       modn V(B,PSUB): LEAVING@  0.00500732us ;
SOAC: I0.MNA.soac_m1       modn V(B,PSUB): ENTERING@ 0.00618968us duration:0.00118us ;
SOAC: I0.MND.soac_m1       modn V(B,PSUB): ENTERING@ 0.00619026us duration:0.00119us ;
    tran: time = 6.515 ns    (32.6 %), step = 18.12 ps    (90.6 m%)
    tran: time = 7.51 ns     (37.6 %), step = 26.42 ps     (132 m%)
    tran: time = 8.509 ns    (42.5 %), step = 17.21 ps      (86 m%)
    tran: time = 9.515 ns    (47.6 %), step = 20.86 ps     (104 m%)
SOAC: I0.MND.soac_m1       modn V(B,PSUB): LEAVING@  0.00900268us ;
SOAC: I0.MNA.soac_m1       modn V(B,PSUB): LEAVING@  0.00900732us ;
SOAC: I0.MNA.soac_m1       modn V(B,PSUB): ENTERING@ 0.0101657us duration:0.00116us ;
SOAC: I0.MND.soac_m1       modn V(B,PSUB): ENTERING@ 0.0101831us duration:0.00118us ;
    tran: time = 10.5 ns     (52.5 %), step = 13.15 ps    (65.7 m%)
SOAC: I0.MND.soac_m1       modn V(B,PSUB): LEAVING@  0.0102674us ;
SOAC: I0.MND.soac_m1       modn V(B,PSUB): ENTERING@ 0.0114158us duration:0.00115us ;
    tran: time = 11.51 ns    (57.6 %), step = 21.7 ps      (108 m%)
    tran: time = 12.51 ns    (62.6 %), step = 14.77 ps    (73.9 m%)
SOAC: I0.MND.soac_m1       modn V(B,PSUB): LEAVING@  0.0122439us ;
    tran: time = 13.51 ns    (67.5 %), step = 24.81 ps     (124 m%)
    tran: time = 14.52 ns    (72.6 %), step = 27.35 ps     (137 m%)
SOAC: I0.MND.soac_m1       modn V(B,PSUB): ENTERING@ 0.015425us duration:0.00318us ;
    tran: time = 15.52 ns    (77.6 %), step = 22.69 ps     (113 m%)
    tran: time = 16.51 ns    (82.6 %), step = 14.92 ps    (74.6 m%)
SOAC: I0.MND.soac_m1       modn V(B,PSUB): LEAVING@  0.0162439us ;
    tran: time = 17.51 ns    (87.5 %), step = 24.9 ps      (125 m%)
    tran: time = 18.52 ns    (92.6 %), step = 27.32 ps     (137 m%)
SOAC: I0.MND.soac_m1       modn V(B,PSUB): ENTERING@ 0.019425us duration:0.00318us ;
    tran: time = 19.52 ns    (97.6 %), step = 22.68 ps     (113 m%)
Number of accepted tran steps =             2619

Maximum value achieved for any signal of each quantity: 
V: V(I0.net1) = 3.628 V
I: I(V:p) = 326 uA

~~~~~~~~~~~~~~~~~~~~~~~~~~~~~~~~~
Post-Transient Simulation Summary
~~~~~~~~~~~~~~~~~~~~~~~~~~~~~~~~~
   -   To further speed up simulation, consider
          add ++aps on command line
   -   Non-default settings that could significantly slow down simulation
          errpreset = conservative, default moderate
          reltol = 10e-06, default 100e-06 (conservative)
~~~~~~~~~~~~~~~~~~~~~~~~~~~~~~~~~


During simulation, the CPU load for active processors is :
         0 (2.5 %)       1 (6.9 %)       2 (7.5 %)       3 (30.4 %)
         4 (18.2 %)      8 (1.9 %)       9 (1.2 %)      10 (10.6 %)
        11 (3.8 %)      
        Total: 84.2%
Initial condition solution time: CPU = 353 us, elapsed = 354.052 us.
Intrinsic tran analysis time:    CPU = 246.14 ms, elapsed = 255.94 ms.
Total time required for tran analysis `tran': CPU = 247.697 ms, elapsed = 265.091 ms, util. = 93.4%.
Time accumulated: CPU = 980.157 ms, elapsed = 1.6429 s.
Peak resident memory used = 197 Mbytes.

finalTimeOP: writing operating point information to rawfile.

Opening the PSF file ../psf/mc1_separate/003/finalTimeOP.info ...
modelParameter: writing model parameter values to rawfile.

Opening the PSF file ../psf/mc1_separate/003/modelParameter.info ...
element: writing instance parameter values to rawfile.

Opening the PSF file ../psf/mc1_separate/003/element.info ...
outputParameter: writing output parameter values to rawfile.

Opening the PSF file ../psf/mc1_separate/003/outputParameter.info ...
designParamVals: writing netlist parameters to rawfile.

Opening the PSFASCII file ../psf/mc1_separate/003/designParamVals.info ...
primitives: writing primitives to rawfile.

Opening the PSFASCII file ../psf/mc1_separate/003/primitives.info.primitives ...
subckts: writing subcircuits to rawfile.

Opening the PSFASCII file ../psf/mc1_separate/003/subckts.info.subckts ...
4              1.51% 

************************************************
Transient Analysis `tran': time = (0 s -> 20 ns)
************************************************

Opening the PSF file ../psf/mc1_separate/004/tran.tran.tran ...

Notice from spectre during IC analysis, during transient analysis `tran', during Monte Carlo analysis `mc1'.
    GminDC = 1 pS is large enough to noticeably affect the DC solution.
        dV(I0.net2) = 62.8848 mV
        Use the `gmin_check' option to eliminate or expand this report.
Warning from spectre during check, during IC analysis, during transient analysis `tran', during Monte Carlo analysis `mc1'.
    WARNING (CMI-2943): Parameter checks have been ignored because the valid value for parameter 'trise' could not be found in 'C0'.

DC simulation time: CPU = 343 us, elapsed = 343.084 us.
Important parameter values:
    start = 0 s
    outputstart = 0 s
    stop = 20 ns
    step = 20 ps
    maxstep = 200 ps
    ic = all
    useprevic = no
    skipdc = no
    reltol = 10e-06
    abstol(V) = 1 uV
    abstol(I) = 1 pA
    temp = 27 C
    tnom = 27 C
    tempeffects = all
    errpreset = conservative
    method = gear2only
    lteratio = 10
    relref = alllocal
    cmin = 0 F
    gmin = 1 pS
    rabsshort = 1 mOhm


Notice from spectre during transient analysis `tran', during Monte Carlo analysis `mc1'.
    Multithreading is disabled due to the size of the design being too small.


Output and IC/nodeset summary:
                 save   5       (current)
                 save   17      (voltage)

    tran: time = 525.5 ps    (2.63 %), step = 28.93 ps     (145 m%)
    tran: time = 1.518 ns    (7.59 %), step = 37.77 ps     (189 m%)
    tran: time = 2.513 ns    (12.6 %), step = 28.77 ps     (144 m%)
    tran: time = 3.532 ns    (17.7 %), step = 41.65 ps     (208 m%)
    tran: time = 4.504 ns    (22.5 %), step = 20.65 ps     (103 m%)
    tran: time = 5.511 ns    (27.6 %), step = 18.99 ps      (95 m%)
SOAC: I0.MND.soac_m1       modn V(B,PSUB): LEAVING@  0.00500272us ;
SOAC: I0.MNA.soac_m1       modn V(B,PSUB): LEAVING@  0.00500732us ;
SOAC: I0.MNA.soac_m1       modn V(B,PSUB): ENTERING@ 0.00618968us duration:0.00118us ;
SOAC: I0.MND.soac_m1       modn V(B,PSUB): ENTERING@ 0.00619026us duration:0.00119us ;
    tran: time = 6.515 ns    (32.6 %), step = 18.12 ps    (90.6 m%)
    tran: time = 7.51 ns     (37.6 %), step = 26.42 ps     (132 m%)
    tran: time = 8.509 ns    (42.5 %), step = 17.21 ps      (86 m%)
    tran: time = 9.515 ns    (47.6 %), step = 20.86 ps     (104 m%)
SOAC: I0.MND.soac_m1       modn V(B,PSUB): LEAVING@  0.00900268us ;
SOAC: I0.MNA.soac_m1       modn V(B,PSUB): LEAVING@  0.00900732us ;
SOAC: I0.MNA.soac_m1       modn V(B,PSUB): ENTERING@ 0.0101657us duration:0.00116us ;
SOAC: I0.MND.soac_m1       modn V(B,PSUB): ENTERING@ 0.0101831us duration:0.00118us ;
    tran: time = 10.5 ns     (52.5 %), step = 13.15 ps    (65.7 m%)
SOAC: I0.MND.soac_m1       modn V(B,PSUB): LEAVING@  0.0102674us ;
SOAC: I0.MND.soac_m1       modn V(B,PSUB): ENTERING@ 0.0114158us duration:0.00115us ;
    tran: time = 11.51 ns    (57.6 %), step = 21.7 ps      (108 m%)
    tran: time = 12.51 ns    (62.6 %), step = 14.77 ps    (73.9 m%)
SOAC: I0.MND.soac_m1       modn V(B,PSUB): LEAVING@  0.0122439us ;
    tran: time = 13.51 ns    (67.5 %), step = 24.81 ps     (124 m%)
    tran: time = 14.52 ns    (72.6 %), step = 27.35 ps     (137 m%)
SOAC: I0.MND.soac_m1       modn V(B,PSUB): ENTERING@ 0.015425us duration:0.00318us ;
    tran: time = 15.52 ns    (77.6 %), step = 22.69 ps     (113 m%)
    tran: time = 16.51 ns    (82.6 %), step = 14.92 ps    (74.6 m%)
SOAC: I0.MND.soac_m1       modn V(B,PSUB): LEAVING@  0.0162439us ;
    tran: time = 17.51 ns    (87.5 %), step = 24.9 ps      (125 m%)
    tran: time = 18.52 ns    (92.6 %), step = 27.32 ps     (137 m%)
SOAC: I0.MND.soac_m1       modn V(B,PSUB): ENTERING@ 0.019425us duration:0.00318us ;
    tran: time = 19.52 ns    (97.6 %), step = 22.68 ps     (113 m%)
Number of accepted tran steps =             2619

Maximum value achieved for any signal of each quantity: 
V: V(I0.net1) = 3.628 V
I: I(V:p) = 326 uA

~~~~~~~~~~~~~~~~~~~~~~~~~~~~~~~~~
Post-Transient Simulation Summary
~~~~~~~~~~~~~~~~~~~~~~~~~~~~~~~~~
   -   To further speed up simulation, consider
          add ++aps on command line
   -   Non-default settings that could significantly slow down simulation
          errpreset = conservative, default moderate
          reltol = 10e-06, default 100e-06 (conservative)
~~~~~~~~~~~~~~~~~~~~~~~~~~~~~~~~~


During simulation, the CPU load for active processors is :
         0 (2.6 %)       1 (6.8 %)       2 (6.2 %)       3 (27.1 %)
         4 (29.2 %)      5 (1.0 %)       6 (2.1 %)       7 (1.0 %)
         8 (2.1 %)       9 (1.0 %)      10 (9.3 %)      11 (5.2 %)
        Total: 93.7%
Initial condition solution time: CPU = 359 us, elapsed = 360.012 us.
Intrinsic tran analysis time:    CPU = 257.43 ms, elapsed = 266.985 ms.
Total time required for tran analysis `tran': CPU = 258.839 ms, elapsed = 275.017 ms, util. = 94.1%.
Time accumulated: CPU = 1.2513 s, elapsed = 1.96155 s.
Peak resident memory used = 197 Mbytes.

finalTimeOP: writing operating point information to rawfile.

Opening the PSF file ../psf/mc1_separate/004/finalTimeOP.info ...
modelParameter: writing model parameter values to rawfile.

Opening the PSF file ../psf/mc1_separate/004/modelParameter.info ...
element: writing instance parameter values to rawfile.

Opening the PSF file ../psf/mc1_separate/004/element.info ...
outputParameter: writing output parameter values to rawfile.

Opening the PSF file ../psf/mc1_separate/004/outputParameter.info ...
designParamVals: writing netlist parameters to rawfile.

Opening the PSFASCII file ../psf/mc1_separate/004/designParamVals.info ...
primitives: writing primitives to rawfile.

Opening the PSFASCII file ../psf/mc1_separate/004/primitives.info.primitives ...
subckts: writing subcircuits to rawfile.

Opening the PSFASCII file ../psf/mc1_separate/004/subckts.info.subckts ...
5              2.01% 

************************************************
Transient Analysis `tran': time = (0 s -> 20 ns)
************************************************

Opening the PSF file ../psf/mc1_separate/005/tran.tran.tran ...

Notice from spectre during IC analysis, during transient analysis `tran', during Monte Carlo analysis `mc1'.
    GminDC = 1 pS is large enough to noticeably affect the DC solution.
        dV(I0.net2) = 62.8848 mV
        Use the `gmin_check' option to eliminate or expand this report.
Warning from spectre during check, during IC analysis, during transient analysis `tran', during Monte Carlo analysis `mc1'.
    WARNING (CMI-2943): Parameter checks have been ignored because the valid value for parameter 'trise' could not be found in 'C0'.

DC simulation time: CPU = 565 us, elapsed = 567.913 us.
Important parameter values:
    start = 0 s
    outputstart = 0 s
    stop = 20 ns
    step = 20 ps
    maxstep = 200 ps
    ic = all
    useprevic = no
    skipdc = no
    reltol = 10e-06
    abstol(V) = 1 uV
    abstol(I) = 1 pA
    temp = 27 C
    tnom = 27 C
    tempeffects = all
    errpreset = conservative
    method = gear2only
    lteratio = 10
    relref = alllocal
    cmin = 0 F
    gmin = 1 pS
    rabsshort = 1 mOhm


Notice from spectre during transient analysis `tran', during Monte Carlo analysis `mc1'.
    Multithreading is disabled due to the size of the design being too small.


Output and IC/nodeset summary:
                 save   5       (current)
                 save   17      (voltage)

    tran: time = 525.5 ps    (2.63 %), step = 28.93 ps     (145 m%)
    tran: time = 1.518 ns    (7.59 %), step = 37.77 ps     (189 m%)
    tran: time = 2.513 ns    (12.6 %), step = 28.77 ps     (144 m%)
    tran: time = 3.532 ns    (17.7 %), step = 41.65 ps     (208 m%)
    tran: time = 4.504 ns    (22.5 %), step = 20.65 ps     (103 m%)
    tran: time = 5.511 ns    (27.6 %), step = 18.99 ps      (95 m%)
SOAC: I0.MND.soac_m1       modn V(B,PSUB): LEAVING@  0.00500272us ;
SOAC: I0.MNA.soac_m1       modn V(B,PSUB): LEAVING@  0.00500732us ;
SOAC: I0.MNA.soac_m1       modn V(B,PSUB): ENTERING@ 0.00618968us duration:0.00118us ;
SOAC: I0.MND.soac_m1       modn V(B,PSUB): ENTERING@ 0.00619026us duration:0.00119us ;
    tran: time = 6.515 ns    (32.6 %), step = 18.12 ps    (90.6 m%)
    tran: time = 7.51 ns     (37.6 %), step = 26.42 ps     (132 m%)
    tran: time = 8.509 ns    (42.5 %), step = 17.21 ps      (86 m%)
    tran: time = 9.515 ns    (47.6 %), step = 20.86 ps     (104 m%)
SOAC: I0.MND.soac_m1       modn V(B,PSUB): LEAVING@  0.00900268us ;
SOAC: I0.MNA.soac_m1       modn V(B,PSUB): LEAVING@  0.00900732us ;
SOAC: I0.MNA.soac_m1       modn V(B,PSUB): ENTERING@ 0.0101657us duration:0.00116us ;
SOAC: I0.MND.soac_m1       modn V(B,PSUB): ENTERING@ 0.0101831us duration:0.00118us ;
    tran: time = 10.5 ns     (52.5 %), step = 13.15 ps    (65.7 m%)
SOAC: I0.MND.soac_m1       modn V(B,PSUB): LEAVING@  0.0102674us ;
SOAC: I0.MND.soac_m1       modn V(B,PSUB): ENTERING@ 0.0114158us duration:0.00115us ;
    tran: time = 11.51 ns    (57.6 %), step = 21.7 ps      (108 m%)
    tran: time = 12.51 ns    (62.6 %), step = 14.77 ps    (73.9 m%)
SOAC: I0.MND.soac_m1       modn V(B,PSUB): LEAVING@  0.0122439us ;
    tran: time = 13.51 ns    (67.5 %), step = 24.81 ps     (124 m%)
    tran: time = 14.52 ns    (72.6 %), step = 27.35 ps     (137 m%)
SOAC: I0.MND.soac_m1       modn V(B,PSUB): ENTERING@ 0.015425us duration:0.00318us ;
    tran: time = 15.52 ns    (77.6 %), step = 22.69 ps     (113 m%)
    tran: time = 16.51 ns    (82.6 %), step = 14.92 ps    (74.6 m%)
SOAC: I0.MND.soac_m1       modn V(B,PSUB): LEAVING@  0.0162439us ;
    tran: time = 17.51 ns    (87.5 %), step = 24.9 ps      (125 m%)
    tran: time = 18.52 ns    (92.6 %), step = 27.32 ps     (137 m%)
SOAC: I0.MND.soac_m1       modn V(B,PSUB): ENTERING@ 0.019425us duration:0.00318us ;
    tran: time = 19.52 ns    (97.6 %), step = 22.68 ps     (113 m%)
Number of accepted tran steps =             2619

Maximum value achieved for any signal of each quantity: 
V: V(I0.net1) = 3.628 V
I: I(V:p) = 326 uA

~~~~~~~~~~~~~~~~~~~~~~~~~~~~~~~~~
Post-Transient Simulation Summary
~~~~~~~~~~~~~~~~~~~~~~~~~~~~~~~~~
   -   To further speed up simulation, consider
          add ++aps on command line
   -   Non-default settings that could significantly slow down simulation
          errpreset = conservative, default moderate
          reltol = 10e-06, default 100e-06 (conservative)
~~~~~~~~~~~~~~~~~~~~~~~~~~~~~~~~~


During simulation, the CPU load for active processors is :
         0 (2.7 %)       1 (6.3 %)       2 (5.8 %)       3 (24.1 %)
         4 (36.6 %)      5 (6.3 %)       6 (3.1 %)       7 (2.2 %)
         8 (3.5 %)       9 (1.8 %)      10 (9.4 %)      11 (6.7 %)
        Total: 108.6%
Initial condition solution time: CPU = 582 us, elapsed = 586.033 us.
Intrinsic tran analysis time:    CPU = 259.148 ms, elapsed = 265.659 ms.
Total time required for tran analysis `tran': CPU = 260.924 ms, elapsed = 274.064 ms, util. = 95.2%.
Time accumulated: CPU = 1.52609 s, elapsed = 2.27481 s.
Peak resident memory used = 197 Mbytes.

finalTimeOP: writing operating point information to rawfile.

Opening the PSF file ../psf/mc1_separate/005/finalTimeOP.info ...
modelParameter: writing model parameter values to rawfile.

Opening the PSF file ../psf/mc1_separate/005/modelParameter.info ...
element: writing instance parameter values to rawfile.

Opening the PSF file ../psf/mc1_separate/005/element.info ...
outputParameter: writing output parameter values to rawfile.

Opening the PSF file ../psf/mc1_separate/005/outputParameter.info ...
designParamVals: writing netlist parameters to rawfile.

Opening the PSFASCII file ../psf/mc1_separate/005/designParamVals.info ...
primitives: writing primitives to rawfile.

Opening the PSFASCII file ../psf/mc1_separate/005/primitives.info.primitives ...
subckts: writing subcircuits to rawfile.

Opening the PSFASCII file ../psf/mc1_separate/005/subckts.info.subckts ...
6              2.51% 

************************************************
Transient Analysis `tran': time = (0 s -> 20 ns)
************************************************

Opening the PSF file ../psf/mc1_separate/006/tran.tran.tran ...

Notice from spectre during IC analysis, during transient analysis `tran', during Monte Carlo analysis `mc1'.
    GminDC = 1 pS is large enough to noticeably affect the DC solution.
        dV(I0.net2) = 62.8848 mV
        Use the `gmin_check' option to eliminate or expand this report.
Warning from spectre during check, during IC analysis, during transient analysis `tran', during Monte Carlo analysis `mc1'.
    WARNING (CMI-2943): Parameter checks have been ignored because the valid value for parameter 'trise' could not be found in 'C0'.

DC simulation time: CPU = 403 us, elapsed = 407.219 us.
Important parameter values:
    start = 0 s
    outputstart = 0 s
    stop = 20 ns
    step = 20 ps
    maxstep = 200 ps
    ic = all
    useprevic = no
    skipdc = no
    reltol = 10e-06
    abstol(V) = 1 uV
    abstol(I) = 1 pA
    temp = 27 C
    tnom = 27 C
    tempeffects = all
    errpreset = conservative
    method = gear2only
    lteratio = 10
    relref = alllocal
    cmin = 0 F
    gmin = 1 pS
    rabsshort = 1 mOhm


Notice from spectre during transient analysis `tran', during Monte Carlo analysis `mc1'.
    Multithreading is disabled due to the size of the design being too small.


Output and IC/nodeset summary:
                 save   5       (current)
                 save   17      (voltage)

    tran: time = 525.5 ps    (2.63 %), step = 28.93 ps     (145 m%)
    tran: time = 1.518 ns    (7.59 %), step = 37.77 ps     (189 m%)
    tran: time = 2.513 ns    (12.6 %), step = 28.77 ps     (144 m%)
    tran: time = 3.532 ns    (17.7 %), step = 41.65 ps     (208 m%)
    tran: time = 4.504 ns    (22.5 %), step = 20.65 ps     (103 m%)
    tran: time = 5.511 ns    (27.6 %), step = 18.99 ps      (95 m%)
SOAC: I0.MND.soac_m1       modn V(B,PSUB): LEAVING@  0.00500272us ;
SOAC: I0.MNA.soac_m1       modn V(B,PSUB): LEAVING@  0.00500732us ;
SOAC: I0.MNA.soac_m1       modn V(B,PSUB): ENTERING@ 0.00618968us duration:0.00118us ;
SOAC: I0.MND.soac_m1       modn V(B,PSUB): ENTERING@ 0.00619026us duration:0.00119us ;
    tran: time = 6.515 ns    (32.6 %), step = 18.12 ps    (90.6 m%)
    tran: time = 7.51 ns     (37.6 %), step = 26.42 ps     (132 m%)
    tran: time = 8.509 ns    (42.5 %), step = 17.21 ps      (86 m%)
    tran: time = 9.515 ns    (47.6 %), step = 20.86 ps     (104 m%)
SOAC: I0.MND.soac_m1       modn V(B,PSUB): LEAVING@  0.00900268us ;
SOAC: I0.MNA.soac_m1       modn V(B,PSUB): LEAVING@  0.00900732us ;
SOAC: I0.MNA.soac_m1       modn V(B,PSUB): ENTERING@ 0.0101657us duration:0.00116us ;
SOAC: I0.MND.soac_m1       modn V(B,PSUB): ENTERING@ 0.0101831us duration:0.00118us ;
    tran: time = 10.5 ns     (52.5 %), step = 13.15 ps    (65.7 m%)
SOAC: I0.MND.soac_m1       modn V(B,PSUB): LEAVING@  0.0102674us ;
SOAC: I0.MND.soac_m1       modn V(B,PSUB): ENTERING@ 0.0114158us duration:0.00115us ;
    tran: time = 11.51 ns    (57.6 %), step = 21.7 ps      (108 m%)
    tran: time = 12.51 ns    (62.6 %), step = 14.77 ps    (73.9 m%)
SOAC: I0.MND.soac_m1       modn V(B,PSUB): LEAVING@  0.0122439us ;
    tran: time = 13.51 ns    (67.5 %), step = 24.81 ps     (124 m%)
    tran: time = 14.52 ns    (72.6 %), step = 27.35 ps     (137 m%)
SOAC: I0.MND.soac_m1       modn V(B,PSUB): ENTERING@ 0.015425us duration:0.00318us ;
    tran: time = 15.52 ns    (77.6 %), step = 22.69 ps     (113 m%)
    tran: time = 16.51 ns    (82.6 %), step = 14.92 ps    (74.6 m%)
SOAC: I0.MND.soac_m1       modn V(B,PSUB): LEAVING@  0.0162439us ;
    tran: time = 17.51 ns    (87.5 %), step = 24.9 ps      (125 m%)
    tran: time = 18.52 ns    (92.6 %), step = 27.32 ps     (137 m%)
SOAC: I0.MND.soac_m1       modn V(B,PSUB): ENTERING@ 0.019425us duration:0.00318us ;
    tran: time = 19.52 ns    (97.6 %), step = 22.68 ps     (113 m%)
Number of accepted tran steps =             2619

Maximum value achieved for any signal of each quantity: 
V: V(I0.net1) = 3.628 V
I: I(V:p) = 326 uA

~~~~~~~~~~~~~~~~~~~~~~~~~~~~~~~~~
Post-Transient Simulation Summary
~~~~~~~~~~~~~~~~~~~~~~~~~~~~~~~~~
   -   To further speed up simulation, consider
          add ++aps on command line
   -   Non-default settings that could significantly slow down simulation
          errpreset = conservative, default moderate
          reltol = 10e-06, default 100e-06 (conservative)
~~~~~~~~~~~~~~~~~~~~~~~~~~~~~~~~~


During simulation, the CPU load for active processors is :
         0 (7.4 %)       1 (8.2 %)       2 (5.1 %)       3 (21.2 %)
         4 (43.0 %)      5 (5.9 %)       6 (3.9 %)       7 (2.4 %)
         8 (3.5 %)       9 (2.0 %)      10 (8.6 %)      11 (6.7 %)
        Total: 117.9%
Initial condition solution time: CPU = 422 us, elapsed = 426.054 us.
Intrinsic tran analysis time:    CPU = 258.991 ms, elapsed = 265.637 ms.
Total time required for tran analysis `tran': CPU = 260.528 ms, elapsed = 274.591 ms, util. = 94.9%.
Time accumulated: CPU = 1.79857 s, elapsed = 2.58769 s.
Peak resident memory used = 197 Mbytes.

finalTimeOP: writing operating point information to rawfile.

Opening the PSF file ../psf/mc1_separate/006/finalTimeOP.info ...
modelParameter: writing model parameter values to rawfile.

Opening the PSF file ../psf/mc1_separate/006/modelParameter.info ...
element: writing instance parameter values to rawfile.

Opening the PSF file ../psf/mc1_separate/006/element.info ...
outputParameter: writing output parameter values to rawfile.

Opening the PSF file ../psf/mc1_separate/006/outputParameter.info ...
designParamVals: writing netlist parameters to rawfile.

Opening the PSFASCII file ../psf/mc1_separate/006/designParamVals.info ...
primitives: writing primitives to rawfile.

Opening the PSFASCII file ../psf/mc1_separate/006/primitives.info.primitives ...
subckts: writing subcircuits to rawfile.

Opening the PSFASCII file ../psf/mc1_separate/006/subckts.info.subckts ...
    mc1: iteration = 6           (2.51 %), step = 1            (503 m%)
7              3.02% 

************************************************
Transient Analysis `tran': time = (0 s -> 20 ns)
************************************************

Opening the PSF file ../psf/mc1_separate/007/tran.tran.tran ...

Notice from spectre during IC analysis, during transient analysis `tran', during Monte Carlo analysis `mc1'.
    GminDC = 1 pS is large enough to noticeably affect the DC solution.
        dV(I0.net2) = 62.8848 mV
        Use the `gmin_check' option to eliminate or expand this report.
Warning from spectre during check, during IC analysis, during transient analysis `tran', during Monte Carlo analysis `mc1'.
    WARNING (CMI-2943): Parameter checks have been ignored because the valid value for parameter 'trise' could not be found in 'C0'.

DC simulation time: CPU = 360 us, elapsed = 360.012 us.
Important parameter values:
    start = 0 s
    outputstart = 0 s
    stop = 20 ns
    step = 20 ps
    maxstep = 200 ps
    ic = all
    useprevic = no
    skipdc = no
    reltol = 10e-06
    abstol(V) = 1 uV
    abstol(I) = 1 pA
    temp = 27 C
    tnom = 27 C
    tempeffects = all
    errpreset = conservative
    method = gear2only
    lteratio = 10
    relref = alllocal
    cmin = 0 F
    gmin = 1 pS
    rabsshort = 1 mOhm


Notice from spectre during transient analysis `tran', during Monte Carlo analysis `mc1'.
    Multithreading is disabled due to the size of the design being too small.


Output and IC/nodeset summary:
                 save   5       (current)
                 save   17      (voltage)

    tran: time = 525.5 ps    (2.63 %), step = 28.93 ps     (145 m%)
    tran: time = 1.518 ns    (7.59 %), step = 37.77 ps     (189 m%)
    tran: time = 2.513 ns    (12.6 %), step = 28.77 ps     (144 m%)
    tran: time = 3.532 ns    (17.7 %), step = 41.65 ps     (208 m%)
    tran: time = 4.504 ns    (22.5 %), step = 20.65 ps     (103 m%)
    tran: time = 5.511 ns    (27.6 %), step = 18.99 ps      (95 m%)
SOAC: I0.MND.soac_m1       modn V(B,PSUB): LEAVING@  0.00500272us ;
SOAC: I0.MNA.soac_m1       modn V(B,PSUB): LEAVING@  0.00500732us ;
SOAC: I0.MNA.soac_m1       modn V(B,PSUB): ENTERING@ 0.00618968us duration:0.00118us ;
SOAC: I0.MND.soac_m1       modn V(B,PSUB): ENTERING@ 0.00619026us duration:0.00119us ;
    tran: time = 6.515 ns    (32.6 %), step = 18.12 ps    (90.6 m%)
    tran: time = 7.51 ns     (37.6 %), step = 26.42 ps     (132 m%)
    tran: time = 8.509 ns    (42.5 %), step = 17.21 ps      (86 m%)
    tran: time = 9.515 ns    (47.6 %), step = 20.86 ps     (104 m%)
SOAC: I0.MND.soac_m1       modn V(B,PSUB): LEAVING@  0.00900268us ;
SOAC: I0.MNA.soac_m1       modn V(B,PSUB): LEAVING@  0.00900732us ;
SOAC: I0.MNA.soac_m1       modn V(B,PSUB): ENTERING@ 0.0101657us duration:0.00116us ;
SOAC: I0.MND.soac_m1       modn V(B,PSUB): ENTERING@ 0.0101831us duration:0.00118us ;
    tran: time = 10.5 ns     (52.5 %), step = 13.15 ps    (65.7 m%)
SOAC: I0.MND.soac_m1       modn V(B,PSUB): LEAVING@  0.0102674us ;
SOAC: I0.MND.soac_m1       modn V(B,PSUB): ENTERING@ 0.0114158us duration:0.00115us ;
    tran: time = 11.51 ns    (57.6 %), step = 21.7 ps      (108 m%)
    tran: time = 12.51 ns    (62.6 %), step = 14.77 ps    (73.9 m%)
SOAC: I0.MND.soac_m1       modn V(B,PSUB): LEAVING@  0.0122439us ;
    tran: time = 13.51 ns    (67.5 %), step = 24.81 ps     (124 m%)
    tran: time = 14.52 ns    (72.6 %), step = 27.35 ps     (137 m%)
SOAC: I0.MND.soac_m1       modn V(B,PSUB): ENTERING@ 0.015425us duration:0.00318us ;
    tran: time = 15.52 ns    (77.6 %), step = 22.69 ps     (113 m%)
    tran: time = 16.51 ns    (82.6 %), step = 14.92 ps    (74.6 m%)
SOAC: I0.MND.soac_m1       modn V(B,PSUB): LEAVING@  0.0162439us ;
    tran: time = 17.51 ns    (87.5 %), step = 24.9 ps      (125 m%)
    tran: time = 18.52 ns    (92.6 %), step = 27.32 ps     (137 m%)
SOAC: I0.MND.soac_m1       modn V(B,PSUB): ENTERING@ 0.019425us duration:0.00318us ;
    tran: time = 19.52 ns    (97.6 %), step = 22.68 ps     (113 m%)
Number of accepted tran steps =             2619

Maximum value achieved for any signal of each quantity: 
V: V(I0.net1) = 3.628 V
I: I(V:p) = 326 uA

~~~~~~~~~~~~~~~~~~~~~~~~~~~~~~~~~
Post-Transient Simulation Summary
~~~~~~~~~~~~~~~~~~~~~~~~~~~~~~~~~
   -   To further speed up simulation, consider
          add ++aps on command line
   -   Non-default settings that could significantly slow down simulation
          errpreset = conservative, default moderate
          reltol = 10e-06, default 100e-06 (conservative)
~~~~~~~~~~~~~~~~~~~~~~~~~~~~~~~~~


During simulation, the CPU load for active processors is :
         0 (6.6 %)       1 (7.3 %)       2 (4.6 %)       3 (18.9 %)
         4 (47.4 %)      5 (5.3 %)       6 (3.5 %)       7 (2.1 %)
         8 (3.1 %)       9 (1.8 %)      10 (7.7 %)      11 (6.0 %)
        Total: 114.3%
Initial condition solution time: CPU = 376 us, elapsed = 376.94 us.
Intrinsic tran analysis time:    CPU = 248.585 ms, elapsed = 257.344 ms.
Total time required for tran analysis `tran': CPU = 250.073 ms, elapsed = 267.809 ms, util. = 93.4%.
Time accumulated: CPU = 2.06032 s, elapsed = 2.89852 s.
Peak resident memory used = 197 Mbytes.

finalTimeOP: writing operating point information to rawfile.

Opening the PSF file ../psf/mc1_separate/007/finalTimeOP.info ...
modelParameter: writing model parameter values to rawfile.

Opening the PSF file ../psf/mc1_separate/007/modelParameter.info ...
element: writing instance parameter values to rawfile.

Opening the PSF file ../psf/mc1_separate/007/element.info ...
outputParameter: writing output parameter values to rawfile.

Opening the PSF file ../psf/mc1_separate/007/outputParameter.info ...
designParamVals: writing netlist parameters to rawfile.

Opening the PSFASCII file ../psf/mc1_separate/007/designParamVals.info ...
primitives: writing primitives to rawfile.

Opening the PSFASCII file ../psf/mc1_separate/007/primitives.info.primitives ...
subckts: writing subcircuits to rawfile.

Opening the PSFASCII file ../psf/mc1_separate/007/subckts.info.subckts ...
    mc1: iteration = 7           (3.02 %), step = 1            (503 m%)
8              3.52% 

************************************************
Transient Analysis `tran': time = (0 s -> 20 ns)
************************************************

Opening the PSF file ../psf/mc1_separate/008/tran.tran.tran ...

Notice from spectre during IC analysis, during transient analysis `tran', during Monte Carlo analysis `mc1'.
    GminDC = 1 pS is large enough to noticeably affect the DC solution.
        dV(I0.net2) = 62.8848 mV
        Use the `gmin_check' option to eliminate or expand this report.
Warning from spectre during check, during IC analysis, during transient analysis `tran', during Monte Carlo analysis `mc1'.
    WARNING (CMI-2943): Parameter checks have been ignored because the valid value for parameter 'trise' could not be found in 'C0'.

DC simulation time: CPU = 476 us, elapsed = 478.983 us.
Important parameter values:
    start = 0 s
    outputstart = 0 s
    stop = 20 ns
    step = 20 ps
    maxstep = 200 ps
    ic = all
    useprevic = no
    skipdc = no
    reltol = 10e-06
    abstol(V) = 1 uV
    abstol(I) = 1 pA
    temp = 27 C
    tnom = 27 C
    tempeffects = all
    errpreset = conservative
    method = gear2only
    lteratio = 10
    relref = alllocal
    cmin = 0 F
    gmin = 1 pS
    rabsshort = 1 mOhm


Notice from spectre during transient analysis `tran', during Monte Carlo analysis `mc1'.
    Multithreading is disabled due to the size of the design being too small.


Output and IC/nodeset summary:
                 save   5       (current)
                 save   17      (voltage)

    tran: time = 525.5 ps    (2.63 %), step = 28.93 ps     (145 m%)
    tran: time = 1.518 ns    (7.59 %), step = 37.77 ps     (189 m%)
    tran: time = 2.513 ns    (12.6 %), step = 28.77 ps     (144 m%)
    tran: time = 3.532 ns    (17.7 %), step = 41.65 ps     (208 m%)
    tran: time = 4.504 ns    (22.5 %), step = 20.65 ps     (103 m%)
    tran: time = 5.511 ns    (27.6 %), step = 18.99 ps      (95 m%)
SOAC: I0.MND.soac_m1       modn V(B,PSUB): LEAVING@  0.00500272us ;
SOAC: I0.MNA.soac_m1       modn V(B,PSUB): LEAVING@  0.00500732us ;
SOAC: I0.MNA.soac_m1       modn V(B,PSUB): ENTERING@ 0.00618968us duration:0.00118us ;
SOAC: I0.MND.soac_m1       modn V(B,PSUB): ENTERING@ 0.00619026us duration:0.00119us ;
    tran: time = 6.515 ns    (32.6 %), step = 18.12 ps    (90.6 m%)
    tran: time = 7.51 ns     (37.6 %), step = 26.42 ps     (132 m%)
    tran: time = 8.509 ns    (42.5 %), step = 17.21 ps      (86 m%)
    tran: time = 9.515 ns    (47.6 %), step = 20.86 ps     (104 m%)
SOAC: I0.MND.soac_m1       modn V(B,PSUB): LEAVING@  0.00900268us ;
SOAC: I0.MNA.soac_m1       modn V(B,PSUB): LEAVING@  0.00900732us ;
SOAC: I0.MNA.soac_m1       modn V(B,PSUB): ENTERING@ 0.0101657us duration:0.00116us ;
SOAC: I0.MND.soac_m1       modn V(B,PSUB): ENTERING@ 0.0101831us duration:0.00118us ;
    tran: time = 10.5 ns     (52.5 %), step = 13.15 ps    (65.7 m%)
SOAC: I0.MND.soac_m1       modn V(B,PSUB): LEAVING@  0.0102674us ;
SOAC: I0.MND.soac_m1       modn V(B,PSUB): ENTERING@ 0.0114158us duration:0.00115us ;
    tran: time = 11.51 ns    (57.6 %), step = 21.7 ps      (108 m%)
    tran: time = 12.51 ns    (62.6 %), step = 14.77 ps    (73.9 m%)
SOAC: I0.MND.soac_m1       modn V(B,PSUB): LEAVING@  0.0122439us ;
    tran: time = 13.51 ns    (67.5 %), step = 24.81 ps     (124 m%)
    tran: time = 14.52 ns    (72.6 %), step = 27.35 ps     (137 m%)
SOAC: I0.MND.soac_m1       modn V(B,PSUB): ENTERING@ 0.015425us duration:0.00318us ;
    tran: time = 15.52 ns    (77.6 %), step = 22.69 ps     (113 m%)
    tran: time = 16.51 ns    (82.6 %), step = 14.92 ps    (74.6 m%)
SOAC: I0.MND.soac_m1       modn V(B,PSUB): LEAVING@  0.0162439us ;
    tran: time = 17.51 ns    (87.5 %), step = 24.9 ps      (125 m%)
    tran: time = 18.52 ns    (92.6 %), step = 27.32 ps     (137 m%)
SOAC: I0.MND.soac_m1       modn V(B,PSUB): ENTERING@ 0.019425us duration:0.00318us ;
    tran: time = 19.52 ns    (97.6 %), step = 22.68 ps     (113 m%)
Number of accepted tran steps =             2619

Maximum value achieved for any signal of each quantity: 
V: V(I0.net1) = 3.628 V
I: I(V:p) = 326 uA

~~~~~~~~~~~~~~~~~~~~~~~~~~~~~~~~~
Post-Transient Simulation Summary
~~~~~~~~~~~~~~~~~~~~~~~~~~~~~~~~~
   -   To further speed up simulation, consider
          add ++aps on command line
   -   Non-default settings that could significantly slow down simulation
          errpreset = conservative, default moderate
          reltol = 10e-06, default 100e-06 (conservative)
~~~~~~~~~~~~~~~~~~~~~~~~~~~~~~~~~


During simulation, the CPU load for active processors is :
         0 (6.0 %)       1 (6.6 %)       2 (4.4 %)       3 (17.1 %)
         4 (51.1 %)      5 (4.8 %)       6 (3.5 %)       7 (1.9 %)
         8 (2.8 %)       9 (1.6 %)      10 (7.2 %)      11 (5.4 %)
        Total: 112.4%
Initial condition solution time: CPU = 492 us, elapsed = 495.911 us.
Intrinsic tran analysis time:    CPU = 246.318 ms, elapsed = 255.021 ms.
Total time required for tran analysis `tran': CPU = 247.998 ms, elapsed = 263.648 ms, util. = 94.1%.
Time accumulated: CPU = 2.32064 s, elapsed = 3.20474 s.
Peak resident memory used = 197 Mbytes.

finalTimeOP: writing operating point information to rawfile.

Opening the PSF file ../psf/mc1_separate/008/finalTimeOP.info ...
modelParameter: writing model parameter values to rawfile.

Opening the PSF file ../psf/mc1_separate/008/modelParameter.info ...
element: writing instance parameter values to rawfile.

Opening the PSF file ../psf/mc1_separate/008/element.info ...
outputParameter: writing output parameter values to rawfile.

Opening the PSF file ../psf/mc1_separate/008/outputParameter.info ...
designParamVals: writing netlist parameters to rawfile.

Opening the PSFASCII file ../psf/mc1_separate/008/designParamVals.info ...
primitives: writing primitives to rawfile.

Opening the PSFASCII file ../psf/mc1_separate/008/primitives.info.primitives ...
subckts: writing subcircuits to rawfile.

Opening the PSFASCII file ../psf/mc1_separate/008/subckts.info.subckts ...
    mc1: iteration = 8           (3.52 %), step = 1            (503 m%)
9              4.02% 

************************************************
Transient Analysis `tran': time = (0 s -> 20 ns)
************************************************

Opening the PSF file ../psf/mc1_separate/009/tran.tran.tran ...

Notice from spectre during IC analysis, during transient analysis `tran', during Monte Carlo analysis `mc1'.
    GminDC = 1 pS is large enough to noticeably affect the DC solution.
        dV(I0.net2) = 62.8848 mV
        Use the `gmin_check' option to eliminate or expand this report.
Warning from spectre during check, during IC analysis, during transient analysis `tran', during Monte Carlo analysis `mc1'.
    WARNING (CMI-2943): Parameter checks have been ignored because the valid value for parameter 'trise' could not be found in 'C0'.

DC simulation time: CPU = 364 us, elapsed = 364.065 us.
Important parameter values:
    start = 0 s
    outputstart = 0 s
    stop = 20 ns
    step = 20 ps
    maxstep = 200 ps
    ic = all
    useprevic = no
    skipdc = no
    reltol = 10e-06
    abstol(V) = 1 uV
    abstol(I) = 1 pA
    temp = 27 C
    tnom = 27 C
    tempeffects = all
    errpreset = conservative
    method = gear2only
    lteratio = 10
    relref = alllocal
    cmin = 0 F
    gmin = 1 pS
    rabsshort = 1 mOhm


Notice from spectre during transient analysis `tran', during Monte Carlo analysis `mc1'.
    Multithreading is disabled due to the size of the design being too small.


Output and IC/nodeset summary:
                 save   5       (current)
                 save   17      (voltage)

    tran: time = 525.5 ps    (2.63 %), step = 28.93 ps     (145 m%)
    tran: time = 1.518 ns    (7.59 %), step = 37.77 ps     (189 m%)
    tran: time = 2.513 ns    (12.6 %), step = 28.77 ps     (144 m%)
    tran: time = 3.532 ns    (17.7 %), step = 41.65 ps     (208 m%)
    tran: time = 4.504 ns    (22.5 %), step = 20.65 ps     (103 m%)
    tran: time = 5.511 ns    (27.6 %), step = 18.99 ps      (95 m%)
SOAC: I0.MND.soac_m1       modn V(B,PSUB): LEAVING@  0.00500272us ;
SOAC: I0.MNA.soac_m1       modn V(B,PSUB): LEAVING@  0.00500732us ;
SOAC: I0.MNA.soac_m1       modn V(B,PSUB): ENTERING@ 0.00618968us duration:0.00118us ;
SOAC: I0.MND.soac_m1       modn V(B,PSUB): ENTERING@ 0.00619026us duration:0.00119us ;
    tran: time = 6.515 ns    (32.6 %), step = 18.12 ps    (90.6 m%)
    tran: time = 7.51 ns     (37.6 %), step = 26.42 ps     (132 m%)
    tran: time = 8.509 ns    (42.5 %), step = 17.21 ps      (86 m%)
    tran: time = 9.515 ns    (47.6 %), step = 20.86 ps     (104 m%)
SOAC: I0.MND.soac_m1       modn V(B,PSUB): LEAVING@  0.00900268us ;
SOAC: I0.MNA.soac_m1       modn V(B,PSUB): LEAVING@  0.00900732us ;
SOAC: I0.MNA.soac_m1       modn V(B,PSUB): ENTERING@ 0.0101657us duration:0.00116us ;
SOAC: I0.MND.soac_m1       modn V(B,PSUB): ENTERING@ 0.0101831us duration:0.00118us ;
    tran: time = 10.5 ns     (52.5 %), step = 13.15 ps    (65.7 m%)
SOAC: I0.MND.soac_m1       modn V(B,PSUB): LEAVING@  0.0102674us ;
SOAC: I0.MND.soac_m1       modn V(B,PSUB): ENTERING@ 0.0114158us duration:0.00115us ;
    tran: time = 11.51 ns    (57.6 %), step = 21.7 ps      (108 m%)
    tran: time = 12.51 ns    (62.6 %), step = 14.77 ps    (73.9 m%)
SOAC: I0.MND.soac_m1       modn V(B,PSUB): LEAVING@  0.0122439us ;
    tran: time = 13.51 ns    (67.5 %), step = 24.81 ps     (124 m%)
    tran: time = 14.52 ns    (72.6 %), step = 27.35 ps     (137 m%)
SOAC: I0.MND.soac_m1       modn V(B,PSUB): ENTERING@ 0.015425us duration:0.00318us ;
    tran: time = 15.52 ns    (77.6 %), step = 22.69 ps     (113 m%)
    tran: time = 16.51 ns    (82.6 %), step = 14.92 ps    (74.6 m%)
SOAC: I0.MND.soac_m1       modn V(B,PSUB): LEAVING@  0.0162439us ;
    tran: time = 17.51 ns    (87.5 %), step = 24.9 ps      (125 m%)
    tran: time = 18.52 ns    (92.6 %), step = 27.32 ps     (137 m%)
SOAC: I0.MND.soac_m1       modn V(B,PSUB): ENTERING@ 0.019425us duration:0.00318us ;
    tran: time = 19.52 ns    (97.6 %), step = 22.68 ps     (113 m%)
Number of accepted tran steps =             2619

Maximum value achieved for any signal of each quantity: 
V: V(I0.net1) = 3.628 V
I: I(V:p) = 326 uA

~~~~~~~~~~~~~~~~~~~~~~~~~~~~~~~~~
Post-Transient Simulation Summary
~~~~~~~~~~~~~~~~~~~~~~~~~~~~~~~~~
   -   To further speed up simulation, consider
          add ++aps on command line
   -   Non-default settings that could significantly slow down simulation
          errpreset = conservative, default moderate
          reltol = 10e-06, default 100e-06 (conservative)
~~~~~~~~~~~~~~~~~~~~~~~~~~~~~~~~~


During simulation, the CPU load for active processors is :
         0 (5.5 %)       1 (6.1 %)       2 (4.3 %)       3 (15.6 %)
         4 (54.3 %)      5 (4.3 %)       6 (3.2 %)       7 (1.7 %)
         8 (2.6 %)       9 (1.4 %)      10 (6.6 %)      11 (5.2 %)
        Total: 110.8%
Initial condition solution time: CPU = 379 us, elapsed = 380.039 us.
Intrinsic tran analysis time:    CPU = 246.823 ms, elapsed = 255.564 ms.
Total time required for tran analysis `tran': CPU = 248.368 ms, elapsed = 264.401 ms, util. = 93.9%.
Time accumulated: CPU = 2.5819 s, elapsed = 3.5121 s.
Peak resident memory used = 197 Mbytes.

finalTimeOP: writing operating point information to rawfile.

Opening the PSF file ../psf/mc1_separate/009/finalTimeOP.info ...
modelParameter: writing model parameter values to rawfile.

Opening the PSF file ../psf/mc1_separate/009/modelParameter.info ...
element: writing instance parameter values to rawfile.

Opening the PSF file ../psf/mc1_separate/009/element.info ...
outputParameter: writing output parameter values to rawfile.

Opening the PSF file ../psf/mc1_separate/009/outputParameter.info ...
designParamVals: writing netlist parameters to rawfile.

Opening the PSFASCII file ../psf/mc1_separate/009/designParamVals.info ...
primitives: writing primitives to rawfile.

Opening the PSFASCII file ../psf/mc1_separate/009/primitives.info.primitives ...
subckts: writing subcircuits to rawfile.

Opening the PSFASCII file ../psf/mc1_separate/009/subckts.info.subckts ...
    mc1: iteration = 9           (4.02 %), step = 1            (503 m%)
10             4.52% 

************************************************
Transient Analysis `tran': time = (0 s -> 20 ns)
************************************************

Opening the PSF file ../psf/mc1_separate/010/tran.tran.tran ...

Notice from spectre during IC analysis, during transient analysis `tran', during Monte Carlo analysis `mc1'.
    GminDC = 1 pS is large enough to noticeably affect the DC solution.
        dV(I0.net2) = 62.8848 mV
        Use the `gmin_check' option to eliminate or expand this report.
Warning from spectre during check, during IC analysis, during transient analysis `tran', during Monte Carlo analysis `mc1'.
    WARNING (CMI-2943): Parameter checks have been ignored because the valid value for parameter 'trise' could not be found in 'C0'.

DC simulation time: CPU = 367 us, elapsed = 353.098 us.
Important parameter values:
    start = 0 s
    outputstart = 0 s
    stop = 20 ns
    step = 20 ps
    maxstep = 200 ps
    ic = all
    useprevic = no
    skipdc = no
    reltol = 10e-06
    abstol(V) = 1 uV
    abstol(I) = 1 pA
    temp = 27 C
    tnom = 27 C
    tempeffects = all
    errpreset = conservative
    method = gear2only
    lteratio = 10
    relref = alllocal
    cmin = 0 F
    gmin = 1 pS
    rabsshort = 1 mOhm


Notice from spectre during transient analysis `tran', during Monte Carlo analysis `mc1'.
    Multithreading is disabled due to the size of the design being too small.


Output and IC/nodeset summary:
                 save   5       (current)
                 save   17      (voltage)

    tran: time = 525.5 ps    (2.63 %), step = 28.93 ps     (145 m%)
    tran: time = 1.518 ns    (7.59 %), step = 37.77 ps     (189 m%)
    tran: time = 2.513 ns    (12.6 %), step = 28.77 ps     (144 m%)
    tran: time = 3.532 ns    (17.7 %), step = 41.65 ps     (208 m%)
    tran: time = 4.504 ns    (22.5 %), step = 20.65 ps     (103 m%)
    tran: time = 5.511 ns    (27.6 %), step = 18.99 ps      (95 m%)
SOAC: I0.MND.soac_m1       modn V(B,PSUB): LEAVING@  0.00500272us ;
SOAC: I0.MNA.soac_m1       modn V(B,PSUB): LEAVING@  0.00500732us ;
SOAC: I0.MNA.soac_m1       modn V(B,PSUB): ENTERING@ 0.00618968us duration:0.00118us ;
SOAC: I0.MND.soac_m1       modn V(B,PSUB): ENTERING@ 0.00619026us duration:0.00119us ;
    tran: time = 6.515 ns    (32.6 %), step = 18.12 ps    (90.6 m%)
    tran: time = 7.51 ns     (37.6 %), step = 26.42 ps     (132 m%)
    tran: time = 8.509 ns    (42.5 %), step = 17.21 ps      (86 m%)
    tran: time = 9.515 ns    (47.6 %), step = 20.86 ps     (104 m%)
SOAC: I0.MND.soac_m1       modn V(B,PSUB): LEAVING@  0.00900268us ;
SOAC: I0.MNA.soac_m1       modn V(B,PSUB): LEAVING@  0.00900732us ;
SOAC: I0.MNA.soac_m1       modn V(B,PSUB): ENTERING@ 0.0101657us duration:0.00116us ;
SOAC: I0.MND.soac_m1       modn V(B,PSUB): ENTERING@ 0.0101831us duration:0.00118us ;
    tran: time = 10.5 ns     (52.5 %), step = 13.15 ps    (65.7 m%)
SOAC: I0.MND.soac_m1       modn V(B,PSUB): LEAVING@  0.0102674us ;
SOAC: I0.MND.soac_m1       modn V(B,PSUB): ENTERING@ 0.0114158us duration:0.00115us ;
    tran: time = 11.51 ns    (57.6 %), step = 21.7 ps      (108 m%)
    tran: time = 12.51 ns    (62.6 %), step = 14.77 ps    (73.9 m%)
SOAC: I0.MND.soac_m1       modn V(B,PSUB): LEAVING@  0.0122439us ;
    tran: time = 13.51 ns    (67.5 %), step = 24.81 ps     (124 m%)
    tran: time = 14.52 ns    (72.6 %), step = 27.35 ps     (137 m%)
SOAC: I0.MND.soac_m1       modn V(B,PSUB): ENTERING@ 0.015425us duration:0.00318us ;
    tran: time = 15.52 ns    (77.6 %), step = 22.69 ps     (113 m%)
    tran: time = 16.51 ns    (82.6 %), step = 14.92 ps    (74.6 m%)
SOAC: I0.MND.soac_m1       modn V(B,PSUB): LEAVING@  0.0162439us ;
    tran: time = 17.51 ns    (87.5 %), step = 24.9 ps      (125 m%)
    tran: time = 18.52 ns    (92.6 %), step = 27.32 ps     (137 m%)
SOAC: I0.MND.soac_m1       modn V(B,PSUB): ENTERING@ 0.019425us duration:0.00318us ;
    tran: time = 19.52 ns    (97.6 %), step = 22.68 ps     (113 m%)
Number of accepted tran steps =             2619

Maximum value achieved for any signal of each quantity: 
V: V(I0.net1) = 3.628 V
I: I(V:p) = 326 uA

~~~~~~~~~~~~~~~~~~~~~~~~~~~~~~~~~
Post-Transient Simulation Summary
~~~~~~~~~~~~~~~~~~~~~~~~~~~~~~~~~
   -   To further speed up simulation, consider
          add ++aps on command line
   -   Non-default settings that could significantly slow down simulation
          errpreset = conservative, default moderate
          reltol = 10e-06, default 100e-06 (conservative)
~~~~~~~~~~~~~~~~~~~~~~~~~~~~~~~~~


During simulation, the CPU load for active processors is :
         0 (5.5 %)       1 (5.8 %)       2 (4.2 %)       3 (15.3 %)
         4 (57.0 %)      5 (4.5 %)       6 (2.9 %)       7 (1.6 %)
         8 (2.4 %)       9 (2.9 %)      10 (6.1 %)      11 (5.3 %)
        Total: 113.4%
Initial condition solution time: CPU = 384 us, elapsed = 385.046 us.
Intrinsic tran analysis time:    CPU = 259.739 ms, elapsed = 268.155 ms.
Total time required for tran analysis `tran': CPU = 261.396 ms, elapsed = 276.636 ms, util. = 94.5%.
Time accumulated: CPU = 2.85637 s, elapsed = 3.83097 s.
Peak resident memory used = 197 Mbytes.

finalTimeOP: writing operating point information to rawfile.

Opening the PSF file ../psf/mc1_separate/010/finalTimeOP.info ...
modelParameter: writing model parameter values to rawfile.

Opening the PSF file ../psf/mc1_separate/010/modelParameter.info ...
element: writing instance parameter values to rawfile.

Opening the PSF file ../psf/mc1_separate/010/element.info ...
outputParameter: writing output parameter values to rawfile.

Opening the PSF file ../psf/mc1_separate/010/outputParameter.info ...
designParamVals: writing netlist parameters to rawfile.

Opening the PSFASCII file ../psf/mc1_separate/010/designParamVals.info ...
primitives: writing primitives to rawfile.

Opening the PSFASCII file ../psf/mc1_separate/010/primitives.info.primitives ...
subckts: writing subcircuits to rawfile.

Opening the PSFASCII file ../psf/mc1_separate/010/subckts.info.subckts ...
    mc1: iteration = 10          (4.52 %), step = 1            (503 m%)
11             5.03% 

************************************************
Transient Analysis `tran': time = (0 s -> 20 ns)
************************************************

Opening the PSF file ../psf/mc1_separate/011/tran.tran.tran ...

Notice from spectre during IC analysis, during transient analysis `tran', during Monte Carlo analysis `mc1'.
    GminDC = 1 pS is large enough to noticeably affect the DC solution.
        dV(I0.net2) = 62.8848 mV
        Use the `gmin_check' option to eliminate or expand this report.
Warning from spectre during check, during IC analysis, during transient analysis `tran', during Monte Carlo analysis `mc1'.
    WARNING (CMI-2943): Parameter checks have been ignored because the valid value for parameter 'trise' could not be found in 'C0'.

DC simulation time: CPU = 434 us, elapsed = 435.114 us.
Important parameter values:
    start = 0 s
    outputstart = 0 s
    stop = 20 ns
    step = 20 ps
    maxstep = 200 ps
    ic = all
    useprevic = no
    skipdc = no
    reltol = 10e-06
    abstol(V) = 1 uV
    abstol(I) = 1 pA
    temp = 27 C
    tnom = 27 C
    tempeffects = all
    errpreset = conservative
    method = gear2only
    lteratio = 10
    relref = alllocal
    cmin = 0 F
    gmin = 1 pS
    rabsshort = 1 mOhm


Notice from spectre during transient analysis `tran', during Monte Carlo analysis `mc1'.
    Multithreading is disabled due to the size of the design being too small.


Output and IC/nodeset summary:
                 save   5       (current)
                 save   17      (voltage)

    tran: time = 525.5 ps    (2.63 %), step = 28.93 ps     (145 m%)
    tran: time = 1.518 ns    (7.59 %), step = 37.77 ps     (189 m%)
    tran: time = 2.513 ns    (12.6 %), step = 28.77 ps     (144 m%)
    tran: time = 3.532 ns    (17.7 %), step = 41.65 ps     (208 m%)
    tran: time = 4.504 ns    (22.5 %), step = 20.65 ps     (103 m%)
    tran: time = 5.511 ns    (27.6 %), step = 18.99 ps      (95 m%)
SOAC: I0.MND.soac_m1       modn V(B,PSUB): LEAVING@  0.00500272us ;
SOAC: I0.MNA.soac_m1       modn V(B,PSUB): LEAVING@  0.00500732us ;
SOAC: I0.MNA.soac_m1       modn V(B,PSUB): ENTERING@ 0.00618968us duration:0.00118us ;
SOAC: I0.MND.soac_m1       modn V(B,PSUB): ENTERING@ 0.00619026us duration:0.00119us ;
    tran: time = 6.515 ns    (32.6 %), step = 18.12 ps    (90.6 m%)
    tran: time = 7.51 ns     (37.6 %), step = 26.42 ps     (132 m%)
    tran: time = 8.509 ns    (42.5 %), step = 17.21 ps      (86 m%)
    tran: time = 9.515 ns    (47.6 %), step = 20.86 ps     (104 m%)
SOAC: I0.MND.soac_m1       modn V(B,PSUB): LEAVING@  0.00900268us ;
SOAC: I0.MNA.soac_m1       modn V(B,PSUB): LEAVING@  0.00900732us ;
SOAC: I0.MNA.soac_m1       modn V(B,PSUB): ENTERING@ 0.0101657us duration:0.00116us ;
SOAC: I0.MND.soac_m1       modn V(B,PSUB): ENTERING@ 0.0101831us duration:0.00118us ;
    tran: time = 10.5 ns     (52.5 %), step = 13.15 ps    (65.7 m%)
SOAC: I0.MND.soac_m1       modn V(B,PSUB): LEAVING@  0.0102674us ;
SOAC: I0.MND.soac_m1       modn V(B,PSUB): ENTERING@ 0.0114158us duration:0.00115us ;
    tran: time = 11.51 ns    (57.6 %), step = 21.7 ps      (108 m%)
    tran: time = 12.51 ns    (62.6 %), step = 14.77 ps    (73.9 m%)
SOAC: I0.MND.soac_m1       modn V(B,PSUB): LEAVING@  0.0122439us ;
    tran: time = 13.51 ns    (67.5 %), step = 24.81 ps     (124 m%)
    tran: time = 14.52 ns    (72.6 %), step = 27.35 ps     (137 m%)
SOAC: I0.MND.soac_m1       modn V(B,PSUB): ENTERING@ 0.015425us duration:0.00318us ;
    tran: time = 15.52 ns    (77.6 %), step = 22.69 ps     (113 m%)
    tran: time = 16.51 ns    (82.6 %), step = 14.92 ps    (74.6 m%)
SOAC: I0.MND.soac_m1       modn V(B,PSUB): LEAVING@  0.0162439us ;
    tran: time = 17.51 ns    (87.5 %), step = 24.9 ps      (125 m%)
    tran: time = 18.52 ns    (92.6 %), step = 27.32 ps     (137 m%)
SOAC: I0.MND.soac_m1       modn V(B,PSUB): ENTERING@ 0.019425us duration:0.00318us ;
    tran: time = 19.52 ns    (97.6 %), step = 22.68 ps     (113 m%)
Number of accepted tran steps =             2619

Maximum value achieved for any signal of each quantity: 
V: V(I0.net1) = 3.628 V
I: I(V:p) = 326 uA

~~~~~~~~~~~~~~~~~~~~~~~~~~~~~~~~~
Post-Transient Simulation Summary
~~~~~~~~~~~~~~~~~~~~~~~~~~~~~~~~~
   -   To further speed up simulation, consider
          add ++aps on command line
   -   Non-default settings that could significantly slow down simulation
          errpreset = conservative, default moderate
          reltol = 10e-06, default 100e-06 (conservative)
~~~~~~~~~~~~~~~~~~~~~~~~~~~~~~~~~


During simulation, the CPU load for active processors is :
         0 (5.4 %)       1 (6.1 %)       2 (4.1 %)       3 (14.4 %)
         4 (58.4 %)      5 (4.2 %)       6 (2.9 %)       7 (1.5 %)
         8 (2.4 %)       9 (6.1 %)      10 (6.4 %)      11 (6.6 %)
        Total: 118.5%
Initial condition solution time: CPU = 452 us, elapsed = 456.095 us.
Intrinsic tran analysis time:    CPU = 257.051 ms, elapsed = 263.504 ms.
Total time required for tran analysis `tran': CPU = 258.659 ms, elapsed = 271.495 ms, util. = 95.3%.
Time accumulated: CPU = 3.12718 s, elapsed = 4.1396 s.
Peak resident memory used = 197 Mbytes.

finalTimeOP: writing operating point information to rawfile.

Opening the PSF file ../psf/mc1_separate/011/finalTimeOP.info ...
modelParameter: writing model parameter values to rawfile.

Opening the PSF file ../psf/mc1_separate/011/modelParameter.info ...
element: writing instance parameter values to rawfile.

Opening the PSF file ../psf/mc1_separate/011/element.info ...
outputParameter: writing output parameter values to rawfile.

Opening the PSF file ../psf/mc1_separate/011/outputParameter.info ...
designParamVals: writing netlist parameters to rawfile.

Opening the PSFASCII file ../psf/mc1_separate/011/designParamVals.info ...
primitives: writing primitives to rawfile.

Opening the PSFASCII file ../psf/mc1_separate/011/primitives.info.primitives ...
subckts: writing subcircuits to rawfile.

Opening the PSFASCII file ../psf/mc1_separate/011/subckts.info.subckts ...
    mc1: iteration = 11          (5.03 %), step = 1            (503 m%)
12             5.53% 

************************************************
Transient Analysis `tran': time = (0 s -> 20 ns)
************************************************

Opening the PSF file ../psf/mc1_separate/012/tran.tran.tran ...

Notice from spectre during IC analysis, during transient analysis `tran', during Monte Carlo analysis `mc1'.
    GminDC = 1 pS is large enough to noticeably affect the DC solution.
        dV(I0.net2) = 62.8848 mV
        Use the `gmin_check' option to eliminate or expand this report.
Warning from spectre during check, during IC analysis, during transient analysis `tran', during Monte Carlo analysis `mc1'.
    WARNING (CMI-2943): Parameter checks have been ignored because the valid value for parameter 'trise' could not be found in 'C0'.

DC simulation time: CPU = 365 us, elapsed = 368.118 us.
Important parameter values:
    start = 0 s
    outputstart = 0 s
    stop = 20 ns
    step = 20 ps
    maxstep = 200 ps
    ic = all
    useprevic = no
    skipdc = no
    reltol = 10e-06
    abstol(V) = 1 uV
    abstol(I) = 1 pA
    temp = 27 C
    tnom = 27 C
    tempeffects = all
    errpreset = conservative
    method = gear2only
    lteratio = 10
    relref = alllocal
    cmin = 0 F
    gmin = 1 pS
    rabsshort = 1 mOhm


Notice from spectre during transient analysis `tran', during Monte Carlo analysis `mc1'.
    Multithreading is disabled due to the size of the design being too small.


Output and IC/nodeset summary:
                 save   5       (current)
                 save   17      (voltage)

    tran: time = 525.5 ps    (2.63 %), step = 28.93 ps     (145 m%)
    tran: time = 1.518 ns    (7.59 %), step = 37.77 ps     (189 m%)
    tran: time = 2.513 ns    (12.6 %), step = 28.77 ps     (144 m%)
    tran: time = 3.532 ns    (17.7 %), step = 41.65 ps     (208 m%)
    tran: time = 4.504 ns    (22.5 %), step = 20.65 ps     (103 m%)
    tran: time = 5.511 ns    (27.6 %), step = 18.99 ps      (95 m%)
SOAC: I0.MND.soac_m1       modn V(B,PSUB): LEAVING@  0.00500272us ;
SOAC: I0.MNA.soac_m1       modn V(B,PSUB): LEAVING@  0.00500732us ;
[...]
element: writing instance parameter values to rawfile.

Opening the PSF file ../psf/mc1_separate/197/element.info ...
outputParameter: writing output parameter values to rawfile.

Opening the PSF file ../psf/mc1_separate/197/outputParameter.info ...
designParamVals: writing netlist parameters to rawfile.

Opening the PSFASCII file ../psf/mc1_separate/197/designParamVals.info ...
primitives: writing primitives to rawfile.

Opening the PSFASCII file ../psf/mc1_separate/197/primitives.info.primitives ...
subckts: writing subcircuits to rawfile.

Opening the PSFASCII file ../psf/mc1_separate/197/subckts.info.subckts ...
    mc1: iteration = 197         (98.5 %), step = 1            (503 m%)
198           98.99% 

************************************************
Transient Analysis `tran': time = (0 s -> 20 ns)
************************************************

Opening the PSF file ../psf/mc1_separate/198/tran.tran.tran ...

Notice from spectre during IC analysis, during transient analysis `tran', during Monte Carlo analysis `mc1'.
    GminDC = 1 pS is large enough to noticeably affect the DC solution.
        dV(I0.net2) = 62.8848 mV
        Use the `gmin_check' option to eliminate or expand this report.
Warning from spectre during check, during IC analysis, during transient analysis `tran', during Monte Carlo analysis `mc1'.
    WARNING (CMI-2943): Parameter checks have been ignored because the valid value for parameter 'trise' could not be found in 'C0'.

DC simulation time: CPU = 339 us, elapsed = 339.031 us.
Important parameter values:
    start = 0 s
    outputstart = 0 s
    stop = 20 ns
    step = 20 ps
    maxstep = 200 ps
    ic = all
    useprevic = no
    skipdc = no
    reltol = 10e-06
    abstol(V) = 1 uV
    abstol(I) = 1 pA
    temp = 27 C
    tnom = 27 C
    tempeffects = all
    errpreset = conservative
    method = gear2only
    lteratio = 10
    relref = alllocal
    cmin = 0 F
    gmin = 1 pS
    rabsshort = 1 mOhm


Notice from spectre during transient analysis `tran', during Monte Carlo analysis `mc1'.
    Multithreading is disabled due to the size of the design being too small.


Output and IC/nodeset summary:
                 save   5       (current)
                 save   17      (voltage)

    tran: time = 525.5 ps    (2.63 %), step = 28.93 ps     (145 m%)
    tran: time = 1.518 ns    (7.59 %), step = 37.77 ps     (189 m%)
    tran: time = 2.513 ns    (12.6 %), step = 28.77 ps     (144 m%)
    tran: time = 3.532 ns    (17.7 %), step = 41.65 ps     (208 m%)
    tran: time = 4.504 ns    (22.5 %), step = 20.65 ps     (103 m%)
    tran: time = 5.511 ns    (27.6 %), step = 18.99 ps      (95 m%)
SOAC: I0.MND.soac_m1       modn V(B,PSUB): LEAVING@  0.00500272us ;
SOAC: I0.MNA.soac_m1       modn V(B,PSUB): LEAVING@  0.00500732us ;
SOAC: I0.MNA.soac_m1       modn V(B,PSUB): ENTERING@ 0.00618968us duration:0.00118us ;
SOAC: I0.MND.soac_m1       modn V(B,PSUB): ENTERING@ 0.00619026us duration:0.00119us ;
    tran: time = 6.515 ns    (32.6 %), step = 18.12 ps    (90.6 m%)
    tran: time = 7.51 ns     (37.6 %), step = 26.42 ps     (132 m%)
    tran: time = 8.509 ns    (42.5 %), step = 17.21 ps      (86 m%)
    tran: time = 9.515 ns    (47.6 %), step = 20.86 ps     (104 m%)
SOAC: I0.MND.soac_m1       modn V(B,PSUB): LEAVING@  0.00900268us ;
SOAC: I0.MNA.soac_m1       modn V(B,PSUB): LEAVING@  0.00900732us ;
SOAC: I0.MNA.soac_m1       modn V(B,PSUB): ENTERING@ 0.0101657us duration:0.00116us ;
SOAC: I0.MND.soac_m1       modn V(B,PSUB): ENTERING@ 0.0101831us duration:0.00118us ;
    tran: time = 10.5 ns     (52.5 %), step = 13.15 ps    (65.7 m%)
SOAC: I0.MND.soac_m1       modn V(B,PSUB): LEAVING@  0.0102674us ;
SOAC: I0.MND.soac_m1       modn V(B,PSUB): ENTERING@ 0.0114158us duration:0.00115us ;
    tran: time = 11.51 ns    (57.6 %), step = 21.7 ps      (108 m%)
    tran: time = 12.51 ns    (62.6 %), step = 14.77 ps    (73.9 m%)
SOAC: I0.MND.soac_m1       modn V(B,PSUB): LEAVING@  0.0122439us ;
    tran: time = 13.51 ns    (67.5 %), step = 24.81 ps     (124 m%)
    tran: time = 14.52 ns    (72.6 %), step = 27.35 ps     (137 m%)
SOAC: I0.MND.soac_m1       modn V(B,PSUB): ENTERING@ 0.015425us duration:0.00318us ;
    tran: time = 15.52 ns    (77.6 %), step = 22.69 ps     (113 m%)
    tran: time = 16.51 ns    (82.6 %), step = 14.92 ps    (74.6 m%)
SOAC: I0.MND.soac_m1       modn V(B,PSUB): LEAVING@  0.0162439us ;
    tran: time = 17.51 ns    (87.5 %), step = 24.9 ps      (125 m%)
    tran: time = 18.52 ns    (92.6 %), step = 27.32 ps     (137 m%)
SOAC: I0.MND.soac_m1       modn V(B,PSUB): ENTERING@ 0.019425us duration:0.00318us ;
    tran: time = 19.52 ns    (97.6 %), step = 22.68 ps     (113 m%)
Number of accepted tran steps =             2619

Maximum value achieved for any signal of each quantity: 
V: V(I0.net1) = 3.628 V
I: I(V:p) = 326 uA

~~~~~~~~~~~~~~~~~~~~~~~~~~~~~~~~~
Post-Transient Simulation Summary
~~~~~~~~~~~~~~~~~~~~~~~~~~~~~~~~~
   -   To further speed up simulation, consider
          add ++aps on command line
   -   Non-default settings that could significantly slow down simulation
          errpreset = conservative, default moderate
          reltol = 10e-06, default 100e-06 (conservative)
~~~~~~~~~~~~~~~~~~~~~~~~~~~~~~~~~


During simulation, the CPU load for active processors is :
         0 (9.1 %)       1 (7.2 %)       2 (11.3 %)      3 (13.9 %)
         4 (30.2 %)      5 (8.4 %)       6 (5.9 %)       7 (6.3 %)
         8 (11.0 %)      9 (10.1 %)     10 (11.1 %)     11 (10.6 %)
        Total: 135.2%
Initial condition solution time: CPU = 356 us, elapsed = 355.959 us.
Intrinsic tran analysis time:    CPU = 243.931 ms, elapsed = 253.615 ms.
Total time required for tran analysis `tran': CPU = 245.465 ms, elapsed = 264.308 ms, util. = 92.9%.
Time accumulated: CPU = 53.6355 s, elapsed = 62.7206 s (1m  2.7s).
Peak resident memory used = 200 Mbytes.

finalTimeOP: writing operating point information to rawfile.

Opening the PSF file ../psf/mc1_separate/198/finalTimeOP.info ...
modelParameter: writing model parameter values to rawfile.

Opening the PSF file ../psf/mc1_separate/198/modelParameter.info ...
element: writing instance parameter values to rawfile.

Opening the PSF file ../psf/mc1_separate/198/element.info ...
outputParameter: writing output parameter values to rawfile.

Opening the PSF file ../psf/mc1_separate/198/outputParameter.info ...
designParamVals: writing netlist parameters to rawfile.

Opening the PSFASCII file ../psf/mc1_separate/198/designParamVals.info ...
primitives: writing primitives to rawfile.

Opening the PSFASCII file ../psf/mc1_separate/198/primitives.info.primitives ...
subckts: writing subcircuits to rawfile.

Opening the PSFASCII file ../psf/mc1_separate/198/subckts.info.subckts ...
    mc1: iteration = 198           (99 %), step = 1            (503 m%)
199           99.50% 

************************************************
Transient Analysis `tran': time = (0 s -> 20 ns)
************************************************

Opening the PSF file ../psf/mc1_separate/199/tran.tran.tran ...

Notice from spectre during IC analysis, during transient analysis `tran', during Monte Carlo analysis `mc1'.
    GminDC = 1 pS is large enough to noticeably affect the DC solution.
        dV(I0.net2) = 62.8848 mV
        Use the `gmin_check' option to eliminate or expand this report.
Warning from spectre during check, during IC analysis, during transient analysis `tran', during Monte Carlo analysis `mc1'.
    WARNING (CMI-2943): Parameter checks have been ignored because the valid value for parameter 'trise' could not be found in 'C0'.

DC simulation time: CPU = 355 us, elapsed = 355.005 us.
Important parameter values:
    start = 0 s
    outputstart = 0 s
    stop = 20 ns
    step = 20 ps
    maxstep = 200 ps
    ic = all
    useprevic = no
    skipdc = no
    reltol = 10e-06
    abstol(V) = 1 uV
    abstol(I) = 1 pA
    temp = 27 C
    tnom = 27 C
    tempeffects = all
    errpreset = conservative
    method = gear2only
    lteratio = 10
    relref = alllocal
    cmin = 0 F
    gmin = 1 pS
    rabsshort = 1 mOhm


Notice from spectre during transient analysis `tran', during Monte Carlo analysis `mc1'.
    Multithreading is disabled due to the size of the design being too small.


Output and IC/nodeset summary:
                 save   5       (current)
                 save   17      (voltage)

    tran: time = 525.5 ps    (2.63 %), step = 28.93 ps     (145 m%)
    tran: time = 1.518 ns    (7.59 %), step = 37.77 ps     (189 m%)
    tran: time = 2.513 ns    (12.6 %), step = 28.77 ps     (144 m%)
    tran: time = 3.532 ns    (17.7 %), step = 41.65 ps     (208 m%)
    tran: time = 4.504 ns    (22.5 %), step = 20.65 ps     (103 m%)
    tran: time = 5.511 ns    (27.6 %), step = 18.99 ps      (95 m%)
SOAC: I0.MND.soac_m1       modn V(B,PSUB): LEAVING@  0.00500272us ;
SOAC: I0.MNA.soac_m1       modn V(B,PSUB): LEAVING@  0.00500732us ;
SOAC: I0.MNA.soac_m1       modn V(B,PSUB): ENTERING@ 0.00618968us duration:0.00118us ;
SOAC: I0.MND.soac_m1       modn V(B,PSUB): ENTERING@ 0.00619026us duration:0.00119us ;
    tran: time = 6.515 ns    (32.6 %), step = 18.12 ps    (90.6 m%)
    tran: time = 7.51 ns     (37.6 %), step = 26.42 ps     (132 m%)
    tran: time = 8.509 ns    (42.5 %), step = 17.21 ps      (86 m%)
    tran: time = 9.515 ns    (47.6 %), step = 20.86 ps     (104 m%)
SOAC: I0.MND.soac_m1       modn V(B,PSUB): LEAVING@  0.00900268us ;
SOAC: I0.MNA.soac_m1       modn V(B,PSUB): LEAVING@  0.00900732us ;
SOAC: I0.MNA.soac_m1       modn V(B,PSUB): ENTERING@ 0.0101657us duration:0.00116us ;
SOAC: I0.MND.soac_m1       modn V(B,PSUB): ENTERING@ 0.0101831us duration:0.00118us ;
    tran: time = 10.5 ns     (52.5 %), step = 13.15 ps    (65.7 m%)
SOAC: I0.MND.soac_m1       modn V(B,PSUB): LEAVING@  0.0102674us ;
SOAC: I0.MND.soac_m1       modn V(B,PSUB): ENTERING@ 0.0114158us duration:0.00115us ;
    tran: time = 11.51 ns    (57.6 %), step = 21.7 ps      (108 m%)
    tran: time = 12.51 ns    (62.6 %), step = 14.77 ps    (73.9 m%)
SOAC: I0.MND.soac_m1       modn V(B,PSUB): LEAVING@  0.0122439us ;
    tran: time = 13.51 ns    (67.5 %), step = 24.81 ps     (124 m%)
    tran: time = 14.52 ns    (72.6 %), step = 27.35 ps     (137 m%)
SOAC: I0.MND.soac_m1       modn V(B,PSUB): ENTERING@ 0.015425us duration:0.00318us ;
    tran: time = 15.52 ns    (77.6 %), step = 22.69 ps     (113 m%)
    tran: time = 16.51 ns    (82.6 %), step = 14.92 ps    (74.6 m%)
SOAC: I0.MND.soac_m1       modn V(B,PSUB): LEAVING@  0.0162439us ;
    tran: time = 17.51 ns    (87.5 %), step = 24.9 ps      (125 m%)
    tran: time = 18.52 ns    (92.6 %), step = 27.32 ps     (137 m%)
SOAC: I0.MND.soac_m1       modn V(B,PSUB): ENTERING@ 0.019425us duration:0.00318us ;
    tran: time = 19.52 ns    (97.6 %), step = 22.68 ps     (113 m%)
Number of accepted tran steps =             2619

Maximum value achieved for any signal of each quantity: 
V: V(I0.net1) = 3.628 V
I: I(V:p) = 326 uA

~~~~~~~~~~~~~~~~~~~~~~~~~~~~~~~~~
Post-Transient Simulation Summary
~~~~~~~~~~~~~~~~~~~~~~~~~~~~~~~~~
   -   To further speed up simulation, consider
          add ++aps on command line
   -   Non-default settings that could significantly slow down simulation
          errpreset = conservative, default moderate
          reltol = 10e-06, default 100e-06 (conservative)
~~~~~~~~~~~~~~~~~~~~~~~~~~~~~~~~~


During simulation, the CPU load for active processors is :
         0 (9.1 %)       1 (7.3 %)       2 (11.6 %)      3 (13.8 %)
         4 (30.2 %)      5 (8.4 %)       6 (5.9 %)       7 (6.3 %)
         8 (11.0 %)      9 (10.0 %)     10 (11.1 %)     11 (10.6 %)
        Total: 135.4%
Initial condition solution time: CPU = 372 us, elapsed = 374.079 us.
Intrinsic tran analysis time:    CPU = 249.085 ms, elapsed = 256.614 ms.
Total time required for tran analysis `tran': CPU = 250.591 ms, elapsed = 265.057 ms, util. = 94.5%.
Time accumulated: CPU = 53.8991 s, elapsed = 63.0274 s (1m  3.0s).
Peak resident memory used = 200 Mbytes.

finalTimeOP: writing operating point information to rawfile.

Opening the PSF file ../psf/mc1_separate/199/finalTimeOP.info ...
modelParameter: writing model parameter values to rawfile.

Opening the PSF file ../psf/mc1_separate/199/modelParameter.info ...
element: writing instance parameter values to rawfile.

Opening the PSF file ../psf/mc1_separate/199/element.info ...
outputParameter: writing output parameter values to rawfile.

Opening the PSF file ../psf/mc1_separate/199/outputParameter.info ...
designParamVals: writing netlist parameters to rawfile.

Opening the PSFASCII file ../psf/mc1_separate/199/designParamVals.info ...
primitives: writing primitives to rawfile.

Opening the PSFASCII file ../psf/mc1_separate/199/primitives.info.primitives ...
subckts: writing subcircuits to rawfile.

Opening the PSFASCII file ../psf/mc1_separate/199/subckts.info.subckts ...
    mc1: iteration = 199         (99.5 %), step = 1            (503 m%)
200          100.00% 

************************************************
Transient Analysis `tran': time = (0 s -> 20 ns)
************************************************

Opening the PSF file ../psf/mc1_separate/200/tran.tran.tran ...

Notice from spectre during IC analysis, during transient analysis `tran', during Monte Carlo analysis `mc1'.
    GminDC = 1 pS is large enough to noticeably affect the DC solution.
        dV(I0.net2) = 62.8848 mV
        Use the `gmin_check' option to eliminate or expand this report.
Warning from spectre during check, during IC analysis, during transient analysis `tran', during Monte Carlo analysis `mc1'.
    WARNING (CMI-2943): Parameter checks have been ignored because the valid value for parameter 'trise' could not be found in 'C0'.

DC simulation time: CPU = 355 us, elapsed = 356.913 us.
Important parameter values:
    start = 0 s
    outputstart = 0 s
    stop = 20 ns
    step = 20 ps
    maxstep = 200 ps
    ic = all
    useprevic = no
    skipdc = no
    reltol = 10e-06
    abstol(V) = 1 uV
    abstol(I) = 1 pA
    temp = 27 C
    tnom = 27 C
    tempeffects = all
    errpreset = conservative
    method = gear2only
    lteratio = 10
    relref = alllocal
    cmin = 0 F
    gmin = 1 pS
    rabsshort = 1 mOhm


Notice from spectre during transient analysis `tran', during Monte Carlo analysis `mc1'.
    Multithreading is disabled due to the size of the design being too small.


Output and IC/nodeset summary:
                 save   5       (current)
                 save   17      (voltage)

    tran: time = 525.5 ps    (2.63 %), step = 28.93 ps     (145 m%)
    tran: time = 1.518 ns    (7.59 %), step = 37.77 ps     (189 m%)
    tran: time = 2.513 ns    (12.6 %), step = 28.77 ps     (144 m%)
    tran: time = 3.532 ns    (17.7 %), step = 41.65 ps     (208 m%)
    tran: time = 4.504 ns    (22.5 %), step = 20.65 ps     (103 m%)
    tran: time = 5.511 ns    (27.6 %), step = 18.99 ps      (95 m%)
SOAC: I0.MND.soac_m1       modn V(B,PSUB): LEAVING@  0.00500272us ;
SOAC: I0.MNA.soac_m1       modn V(B,PSUB): LEAVING@  0.00500732us ;
SOAC: I0.MNA.soac_m1       modn V(B,PSUB): ENTERING@ 0.00618968us duration:0.00118us ;
SOAC: I0.MND.soac_m1       modn V(B,PSUB): ENTERING@ 0.00619026us duration:0.00119us ;
    tran: time = 6.515 ns    (32.6 %), step = 18.12 ps    (90.6 m%)
    tran: time = 7.51 ns     (37.6 %), step = 26.42 ps     (132 m%)
    tran: time = 8.509 ns    (42.5 %), step = 17.21 ps      (86 m%)
    tran: time = 9.515 ns    (47.6 %), step = 20.86 ps     (104 m%)
SOAC: I0.MND.soac_m1       modn V(B,PSUB): LEAVING@  0.00900268us ;
SOAC: I0.MNA.soac_m1       modn V(B,PSUB): LEAVING@  0.00900732us ;
SOAC: I0.MNA.soac_m1       modn V(B,PSUB): ENTERING@ 0.0101657us duration:0.00116us ;
SOAC: I0.MND.soac_m1       modn V(B,PSUB): ENTERING@ 0.0101831us duration:0.00118us ;
    tran: time = 10.5 ns     (52.5 %), step = 13.15 ps    (65.7 m%)
SOAC: I0.MND.soac_m1       modn V(B,PSUB): LEAVING@  0.0102674us ;
SOAC: I0.MND.soac_m1       modn V(B,PSUB): ENTERING@ 0.0114158us duration:0.00115us ;
    tran: time = 11.51 ns    (57.6 %), step = 21.7 ps      (108 m%)
    tran: time = 12.51 ns    (62.6 %), step = 14.77 ps    (73.9 m%)
SOAC: I0.MND.soac_m1       modn V(B,PSUB): LEAVING@  0.0122439us ;
    tran: time = 13.51 ns    (67.5 %), step = 24.81 ps     (124 m%)
    tran: time = 14.52 ns    (72.6 %), step = 27.35 ps     (137 m%)
SOAC: I0.MND.soac_m1       modn V(B,PSUB): ENTERING@ 0.015425us duration:0.00318us ;
    tran: time = 15.52 ns    (77.6 %), step = 22.69 ps     (113 m%)
    tran: time = 16.51 ns    (82.6 %), step = 14.92 ps    (74.6 m%)
SOAC: I0.MND.soac_m1       modn V(B,PSUB): LEAVING@  0.0162439us ;
    tran: time = 17.51 ns    (87.5 %), step = 24.9 ps      (125 m%)
    tran: time = 18.52 ns    (92.6 %), step = 27.32 ps     (137 m%)
SOAC: I0.MND.soac_m1       modn V(B,PSUB): ENTERING@ 0.019425us duration:0.00318us ;
    tran: time = 19.52 ns    (97.6 %), step = 22.68 ps     (113 m%)
Number of accepted tran steps =             2619

Maximum value achieved for any signal of each quantity: 
V: V(I0.net1) = 3.628 V
I: I(V:p) = 326 uA

~~~~~~~~~~~~~~~~~~~~~~~~~~~~~~~~~
Post-Transient Simulation Summary
~~~~~~~~~~~~~~~~~~~~~~~~~~~~~~~~~
   -   To further speed up simulation, consider
          add ++aps on command line
   -   Non-default settings that could significantly slow down simulation
          errpreset = conservative, default moderate
          reltol = 10e-06, default 100e-06 (conservative)
~~~~~~~~~~~~~~~~~~~~~~~~~~~~~~~~~


During simulation, the CPU load for active processors is :
         0 (9.1 %)       1 (7.3 %)       2 (11.9 %)      3 (13.9 %)
         4 (30.1 %)      5 (8.4 %)       6 (5.9 %)       7 (6.3 %)
         8 (11.0 %)      9 (10.1 %)     10 (11.1 %)     11 (10.6 %)
        Total: 135.7%
Initial condition solution time: CPU = 372 us, elapsed = 375.986 us.
Intrinsic tran analysis time:    CPU = 249.111 ms, elapsed = 255.908 ms.
Total time required for tran analysis `tran': CPU = 250.594 ms, elapsed = 264.157 ms, util. = 94.9%.
Time accumulated: CPU = 54.1618 s, elapsed = 63.3276 s (1m  3.3s).
Peak resident memory used = 200 Mbytes.

finalTimeOP: writing operating point information to rawfile.

Opening the PSF file ../psf/mc1_separate/200/finalTimeOP.info ...
modelParameter: writing model parameter values to rawfile.

Opening the PSF file ../psf/mc1_separate/200/modelParameter.info ...
element: writing instance parameter values to rawfile.

Opening the PSF file ../psf/mc1_separate/200/element.info ...
outputParameter: writing output parameter values to rawfile.

Opening the PSF file ../psf/mc1_separate/200/outputParameter.info ...
designParamVals: writing netlist parameters to rawfile.

Opening the PSFASCII file ../psf/mc1_separate/200/designParamVals.info ...
primitives: writing primitives to rawfile.

Opening the PSFASCII file ../psf/mc1_separate/200/primitives.info.primitives ...
subckts: writing subcircuits to rawfile.

Opening the PSFASCII file ../psf/mc1_separate/200/subckts.info.subckts ...
    mc1: iteration = 200          (100 %), step = 1            (503 m%)
Total time required for montecarlo analysis `mc1': CPU = 54.0107 s, elapsed = 62.6868 s (1m  2.7s), util. = 86.2%.
Time accumulated: CPU = 54.1713 s, elapsed = 63.3584 s (1m  3.4s).
Peak resident memory used = 200 Mbytes.

Licensing Information:
Lic Summary:
[21:20:36.429555] Cdslmd servers:5280@ls-dc2-fen-p1.services.bris.ac.uk:5280@ls-dc2-fen-p0.services.bris.ac.uk
[21:20:36.429576] Feature usage summary:
[21:20:36.429576] Virtuoso_Multi_mode_Simulation


Aggregate audit (9:20:36 PM, Sat Apr 20, 2024):
Time used: CPU = 54.2 s, elapsed = 63.4 s (1m  3.4s), util. = 85.5%.
Time spent in licensing: elapsed = 165 ms.
Peak memory used = 201 Mbytes.
Simulation started at: 9:19:33 PM, Sat Apr 20, 2024, ended at: 9:20:36 PM, Sat Apr 20, 2024, with elapsed time (wall clock): 63.4 s (1m  3.4s).
spectre completes with 0 errors, 216 warnings, and 408 notices.
