
Spectre (R) Circuit Simulator
Version 21.1.0.751.isr19 64bit -- 22 May 2023
Copyright (C) 1989-2023 Cadence Design Systems, Inc. All rights reserved worldwide. Cadence and Spectre are registered trademarks of Cadence Design Systems, Inc. All others are the property of their respective holders.

Includes RSA BSAFE(R) Cryptographic or Security Protocol Software from RSA Security, Inc.

User: oj23092   Host: it075891.wks.bris.ac.uk   HostID: DE89A69F   PID: 229177
Memory  available: 13.3089 GB  physical: 16.2980 GB
Linux   : Rocky Linux release 8.9 (Green Obsidian)
CPU Type: Intel(R) Core(TM) i7-8700 CPU @ 3.20GHz
        Socket: Processors [Frequency] (Hyperthreaded Processor)
        0:       0 [3200.0] (  6 ),  1 [3200.0] (  7 ),  2 [4307.5] (  8 )
                 3 [3200.0] (  9 ),  4 [3200.0] ( 10 ),  5 [3548.5] ( 11 )
        
System load averages (1min, 5min, 15min) : 5.8 %, 2.6 %, 1.2 %
Hyperthreading is enabled
HPC is enabled


Simulating `input.scs' on it075891.wks.bris.ac.uk at 9:00:41 PM, Sat Apr 20, 2024 (process id: 229177).
Current working directory: /home/oj23092/VLSI_Design_Lab/Sim/lab2024/tb_ycircuit/adexl/results/data/Interactive.0/5/lab2024:tb_ycircuit:1/netlist
Command line:
     \
        /eda/cadence/2022-23/RHELx86/SPECTRE_21.10.751/tools.lnx86/bin/spectre  \
        -64 input.scs +escchars +log ../psf/spectre.out -format psfbin  \
        +rtsf -raw ../psf +aps +mt +lqtimeout 900 -maxw 5 -maxn 5  \
        +param /eda/cadence/ams/4.10/spectre/ams_range.lmts -env ade  \
        -ahdllibdir  \
        /home/oj23092/VLSI_Design_Lab/Sim/lab2024/tb_ycircuit/adexl/results/data/Interactive.0/sharedData/Job0/ahdl/input.ahdlSimDB  \
        +logstatus

Licensing Information:
[21:00:42.289610] Configured Lic search path (21.01-s002): 5280@ls-dc2-fen-p1.services.bris.ac.uk:5280@ls-dc2-fen-p0.services.bris.ac.uk

Licensing Information:
[21:00:42.511635] Periodic Lic check successful

Loading /eda/cadence/2022-23/RHELx86/SPECTRE_21.10.751/tools.lnx86/cmi/lib/64bit/5.0/libinfineon_sh.so ...
Loading /eda/cadence/2022-23/RHELx86/SPECTRE_21.10.751/tools.lnx86/cmi/lib/64bit/5.0/libphilips_o_sh.so ...
Loading /eda/cadence/2022-23/RHELx86/SPECTRE_21.10.751/tools.lnx86/cmi/lib/64bit/5.0/libphilips_sh.so ...
Loading /eda/cadence/2022-23/RHELx86/SPECTRE_21.10.751/tools.lnx86/cmi/lib/64bit/5.0/libsparam_sh.so ...
Loading /eda/cadence/2022-23/RHELx86/SPECTRE_21.10.751/tools.lnx86/cmi/lib/64bit/5.0/libstmodels_sh.so ...
Reading file:  /home/oj23092/VLSI_Design_Lab/Sim/lab2024/tb_ycircuit/adexl/results/data/Interactive.0/5/lab2024:tb_ycircuit:1/netlist/input.scs
Reading file:  /eda/cadence/ams/4.10/spectre/ams_range.lmts

Warning from spectre during read of parameter soft limits file `/eda/cadence/ams/4.10/spectre/ams_range.lmts', during circuit read-in.
    WARNING (SPECTRE-8360): line 1511: `ac' is an undefined primitive device.
    WARNING (SPECTRE-8360): line 1512: `ac' is an undefined primitive device.
    WARNING (SPECTRE-8360): line 1513: `ac' is an undefined primitive device.
    WARNING (SPECTRE-8360): line 1514: `ac' is an undefined primitive device.
    WARNING (SPECTRE-8360): line 1515: `ac' is an undefined primitive device.
        Further occurrences of this warning will be suppressed.

Reading file:  /eda/cadence/2022-23/RHELx86/SPECTRE_21.10.751/tools.lnx86/spectre/etc/configs/spectre.cfg
Reading file:  /eda/cadence/ams/4.10/spectre/c35/soac/soac.scs
Reading file:  /eda/cadence/ams/4.10/spectre/c35/soac/res.scs
Reading file:  /eda/cadence/ams/4.10/spectre/c35/soac/bip.scs
Reading file:  /eda/cadence/ams/4.10/spectre/c35/soac/cap.scs
Reading file:  /eda/cadence/ams/4.10/spectre/c35/soac/esddiode.scs
Reading file:  /eda/cadence/ams/4.10/spectre/c35/soac/ind.scs
Reading file:  /eda/cadence/ams/4.10/spectre/c35/soac/cmos53.scs
Reading file:  /eda/cadence/ams/4.10/spectre/c35/soac/processOption.scs
Reading file:  /eda/cadence/ams/4.10/spectre/c35/soac/process.scs
Reading file:  /eda/cadence/ams/4.10/spectre/c35/soac/soac.va

Warning from spectre during AHDL read-in.
    WARNING (VACOMP-2435): The environment variable CDS_AHDLCMI_ENABLE is no longer supported. Therefore, the simulator will use the default compiled C code flow.

Reading link:  /eda/cadence/2022-23/RHELx86/SPECTRE_21.10.751/tools.lnx86/spectre/etc/ahdl/constants.h
Reading file:  /eda/cadence/2022-23/RHELx86/SPECTRE_21.10.751/tools.lnx86/spectre/etc/ahdl/constants.vams
Reading link:  /eda/cadence/2022-23/RHELx86/SPECTRE_21.10.751/tools.lnx86/spectre/etc/ahdl/discipline.h
Reading file:  /eda/cadence/2022-23/RHELx86/SPECTRE_21.10.751/tools.lnx86/spectre/etc/ahdl/disciplines.vams
Reading file:  /eda/cadence/ams/4.10/spectre/c35/processOption/C35B4C3.scs
Time for NDB Parsing: CPU = 81.249 ms, elapsed = 602.621 ms.
Time accumulated: CPU = 137.596 ms, elapsed = 602.624 ms.
Peak resident memory used = 160 Mbytes.

TCP: opening server port it075891.wks.bris.ac.uk:51197
Existing shared object for module modp_ahdl is up to date.
Installed compiled interface for modp_ahdl.
Existing shared object for module modn_ahdl is up to date.
Installed compiled interface for modn_ahdl.
Time for Elaboration: CPU = 16.39 ms, elapsed = 17.2541 ms.
Time accumulated: CPU = 154.079 ms, elapsed = 619.97 ms.
Peak resident memory used = 168 Mbytes.


Notice from spectre during hierarchy flattening.
    The value 'psf' specified for the 'checklimitdest' option will no longer be supported in future releases. Use 'spectre -h' to see other recommended values for the 'checklimitdest' option.


Time for EDB Visiting: CPU = 1.436 ms, elapsed = 1.75381 ms.
Time accumulated: CPU = 155.609 ms, elapsed = 621.817 ms.
Peak resident memory used = 170 Mbytes.

Loading /eda/cadence/2022-23/RHELx86/SPECTRE_21.10.751/tools.lnx86/mdl/lib/64bit/libSpectreEH_sh.so ...

Warning from spectre during initial setup.
    WARNING (SPECTRE-16460): SOAC_cvarm_vspsub:Specified subcircuit master `cvarm' was not found.
    WARNING (SPECTRE-16462): SOAC_cvarm_vspsub:Error in specification of subcircuit master. Assert is ignored.
    WARNING (SPECTRE-16460): SOAC_cvarm_vbs:Specified subcircuit master `cvarm' was not found.
    WARNING (SPECTRE-16462): SOAC_cvarm_vbs:Error in specification of subcircuit master. Assert is ignored.
    WARNING (SPECTRE-16460): SOAC_cvarm_vgb:Specified subcircuit master `cvarm' was not found.
    WARNING (SPECTRE-16462): SOAC_cvarm_vgb:Error in specification of subcircuit master. Assert is ignored.
    WARNING (SPECTRE-16460): SOAC_cvart_vspsub:Specified subcircuit master `cvart' was not found.
    WARNING (SPECTRE-16462): SOAC_cvart_vspsub:Error in specification of subcircuit master. Assert is ignored.
    WARNING (SPECTRE-16460): SOAC_cvart_vbs:Specified subcircuit master `cvart' was not found.
        Further occurrences of this warning will be suppressed.
    WARNING (SPECTRE-16462): SOAC_cvart_vbs:Error in specification of subcircuit master. Assert is ignored.
        Further occurrences of this warning will be suppressed.
Notice from spectre during initial setup.
    Ignorevaref=yes is ignored since all nodes are connected to Verilog-A modules.
Notice from spectre during topology check.
    Only one connection to the following 8 nodes:
        I0.MPD.psub!
        I0.MPC.psub!
        I0.MPB.psub!
        I0.MPA.psub!
        I0.MNC.psub!
        Further occurrences of this notice will be suppressed.
Notice from spectre during initial setup.
    Multithreading is disabled due to the size of the design being too small.


Global user options:
         psfversion = 1.4.0
            vabstol = 1e-06
            iabstol = 1e-12
               temp = 27
           homotopy = 5
              limit = delta
         compatible = spice2
               gmin = 1e-12
             rforce = 1
           maxnotes = 5
           maxwarns = 5
             digits = 5
               cols = 80
             pivrel = 0.001
           sensfile = ../psf/sens.output
     checklimitdest = psf
     enable_pre_ver = yes
      ignorezerovar = yes
               save = allpub
             reltol = 0.0001
               tnom = 27
             scalem = 1
              scale = 1

Scoped user options:

Circuit inventory:
              nodes 17
            bsim3v3 8     
          capacitor 1     
          modn_ahdl 4     
          modp_ahdl 4     
            vsource 5     

Analysis and control statement inventory:
               info 7     
               tran 1     

Output statements:
             .probe 0     
           .measure 0     
               save 1     

Design checks inventory:
          paramtest 8     
             assert 175   


Notice from spectre during initial setup.
    APS enabled.
    1 notice suppressed.
    72 warnings suppressed.

Time for parsing: CPU = 6.26 ms, elapsed = 266.724 ms.
Time accumulated: CPU = 161.953 ms, elapsed = 888.624 ms.
Peak resident memory used = 176 Mbytes.

~~~~~~~~~~~~~~~~~~~~~~
Pre-Simulation Summary
~~~~~~~~~~~~~~~~~~~~~~
   -   (APS) Multi-threading. The recommended number of threads is 1, consider adding +mt=1 on command line.
~~~~~~~~~~~~~~~~~~~~~~

Notice from spectre during transient analysis `tran'.
    No checklimit analysis defined for asserts. A default checklimit analysis 'SpectreChecklimitAnal' has been created with all asserts enabled.


************************************************
Transient Analysis `tran': time = (0 s -> 20 ns)
************************************************

Notice from spectre during IC analysis, during transient analysis `tran'.
    GminDC = 1 pS is large enough to noticeably affect the DC solution.
        dV(I0.net2) = 4.44237 mV
        Use the `gmin_check' option to eliminate or expand this report.
Warning from spectre during check, during IC analysis, during transient analysis `tran'.
    WARNING (CMI-2943): Parameter checks have been ignored because the valid value for parameter 'trise' could not be found in 'C0'.

DC simulation time: CPU = 641 us, elapsed = 643.969 us.

Opening the PSF file ../psf/tran.tran.tran ...
Important parameter values:
    start = 0 s
    outputstart = 0 s
    stop = 20 ns
    step = 20 ps
    maxstep = 200 ps
    ic = all
    useprevic = no
    skipdc = no
    reltol = 10e-06
    abstol(V) = 1 uV
    abstol(I) = 1 pA
    temp = 27 C
    tnom = 27 C
    tempeffects = all
    errpreset = conservative
    method = gear2only
    lteratio = 10
    relref = alllocal
    cmin = 0 F
    gmin = 1 pS
    rabsshort = 1 mOhm


Notice from spectre during transient analysis `tran'.
    Multithreading is disabled due to the size of the design being too small.


Output and IC/nodeset summary:
                 save   5       (current)
                 save   17      (voltage)

    tran: time = 514 ps      (2.57 %), step = 41.86 ps     (209 m%)
    tran: time = 1.53 ns     (7.65 %), step = 30.35 ps     (152 m%)
    tran: time = 2.507 ns    (12.5 %), step = 29.47 ps     (147 m%)
    tran: time = 3.518 ns    (17.6 %), step = 33.4 ps      (167 m%)
    tran: time = 4.501 ns    (22.5 %), step = 18.95 ps    (94.8 m%)
    tran: time = 5.514 ns    (27.6 %), step = 15.06 ps    (75.3 m%)
SOAC: I0.MND.soac_m1       modn V(B,PSUB): LEAVING@  0.0050026us ;
SOAC: I0.MNA.soac_m1       modn V(B,PSUB): LEAVING@  0.00500693us ;
SOAC: I0.MNA.soac_m1       modn V(B,PSUB): ENTERING@ 0.00619479us duration:0.00119us ;
SOAC: I0.MND.soac_m1       modn V(B,PSUB): ENTERING@ 0.00619493us duration:0.00119us ;
    tran: time = 6.511 ns    (32.6 %), step = 13.05 ps    (65.3 m%)
    tran: time = 7.522 ns    (37.6 %), step = 22.94 ps     (115 m%)
    tran: time = 8.516 ns    (42.6 %), step = 16.49 ps    (82.5 m%)
    tran: time = 9.506 ns    (47.5 %), step = 12.92 ps    (64.6 m%)
SOAC: I0.MND.soac_m1       modn V(B,PSUB): LEAVING@  0.00900262us ;
SOAC: I0.MNA.soac_m1       modn V(B,PSUB): LEAVING@  0.00900692us ;
SOAC: I0.MNA.soac_m1       modn V(B,PSUB): ENTERING@ 0.0101623us duration:0.00116us ;
SOAC: I0.MND.soac_m1       modn V(B,PSUB): ENTERING@ 0.0101865us duration:0.00118us ;
    tran: time = 10.5 ns     (52.5 %), step = 22.35 ps     (112 m%)
SOAC: I0.MND.soac_m1       modn V(B,PSUB): LEAVING@  0.0102561us ;
SOAC: I0.MND.soac_m1       modn V(B,PSUB): ENTERING@ 0.0114823us duration:0.00123us ;
    tran: time = 11.52 ns    (57.6 %), step = 20.91 ps     (105 m%)
    tran: time = 12.52 ns    (62.6 %), step = 17.5 ps     (87.5 m%)
SOAC: I0.MND.soac_m1       modn V(B,PSUB): LEAVING@  0.0122277us ;
    tran: time = 13.5 ns     (67.5 %), step = 22.37 ps     (112 m%)
    tran: time = 14.5 ns     (72.5 %), step = 28 ps        (140 m%)
SOAC: I0.MND.soac_m1       modn V(B,PSUB): ENTERING@ 0.0154952us duration:0.00327us ;
    tran: time = 15.51 ns    (77.6 %), step = 18.77 ps    (93.8 m%)
    tran: time = 16.51 ns    (82.6 %), step = 17.29 ps    (86.5 m%)
SOAC: I0.MND.soac_m1       modn V(B,PSUB): LEAVING@  0.0162277us ;
    tran: time = 17.5 ns     (87.5 %), step = 22.37 ps     (112 m%)
    tran: time = 18.5 ns     (92.5 %), step = 28.13 ps     (141 m%)
SOAC: I0.MND.soac_m1       modn V(B,PSUB): ENTERING@ 0.0194952us duration:0.00327us ;
    tran: time = 19.51 ns    (97.6 %), step = 18.75 ps    (93.8 m%)
Number of accepted tran steps =             2549

Maximum value achieved for any signal of each quantity: 
V: V(I0.net1) = 3.598 V
I: I(V:p) = 400.6 uA

~~~~~~~~~~~~~~~~~~~~~~~~~~~~~~~~~
Post-Transient Simulation Summary
~~~~~~~~~~~~~~~~~~~~~~~~~~~~~~~~~
   -   To further speed up simulation, consider
          add ++aps on command line
   -   Non-default settings that could significantly slow down simulation
          errpreset = conservative, default moderate
          reltol = 10e-06, default 100e-06 (conservative)
   -   Features that may significantly slowing down simulation
          asserts = 53.9563 ms
~~~~~~~~~~~~~~~~~~~~~~~~~~~~~~~~~


During simulation, the CPU load for active processors is :
         0 (2.6 %)       1 (6.1 %)       3 (1.7 %)       4 (1.7 %)
         5 (14.7 %)      7 (2.6 %)       8 (4.3 %)       9 (9.6 %)
        10 (3.4 %)      11 (22.4 %)     
        Total: 70.9%
Initial condition solution time: CPU = 672 us, elapsed = 674.009 us.
Intrinsic tran analysis time:    CPU = 276.356 ms, elapsed = 285.368 ms.
Total time required for tran analysis `tran': CPU = 279.695 ms, elapsed = 304.551 ms, util. = 91.8%.
Time accumulated: CPU = 445.987 ms, elapsed = 1.20308 s.
Peak resident memory used = 185 Mbytes.

finalTimeOP: writing operating point information to rawfile.

Opening the PSF file ../psf/finalTimeOP.info ...
modelParameter: writing model parameter values to rawfile.

Opening the PSF file ../psf/modelParameter.info ...
element: writing instance parameter values to rawfile.

Opening the PSF file ../psf/element.info ...
outputParameter: writing output parameter values to rawfile.

Opening the PSF file ../psf/outputParameter.info ...
designParamVals: writing netlist parameters to rawfile.

Opening the PSFASCII file ../psf/designParamVals.info ...
primitives: writing primitives to rawfile.

Opening the PSFASCII file ../psf/primitives.info.primitives ...
subckts: writing subcircuits to rawfile.

Opening the PSFASCII file ../psf/subckts.info.subckts ...
Licensing Information:
Lic Summary:
[21:00:43.210536] Cdslmd servers:5280@ls-dc2-fen-p1.services.bris.ac.uk:5280@ls-dc2-fen-p0.services.bris.ac.uk
[21:00:43.210555] Feature usage summary:
[21:00:43.210560] Virtuoso_Multi_mode_Simulation


Aggregate audit (9:00:43 PM, Sat Apr 20, 2024):
Time used: CPU = 458 ms, elapsed = 1.23 s, util. = 37.2%.
Time spent in licensing: elapsed = 761 ms, percentage of total = 61.8%.
Peak memory used = 187 Mbytes.
Simulation started at: 9:00:41 PM, Sat Apr 20, 2024, ended at: 9:00:43 PM, Sat Apr 20, 2024, with elapsed time (wall clock): 1.23 s.
spectre completes with 0 errors, 17 warnings, and 10 notices.
