
Spectre (R) Circuit Simulator
Version 21.1.0.751.isr19 64bit -- 22 May 2023
Copyright (C) 1989-2023 Cadence Design Systems, Inc. All rights reserved worldwide. Cadence and Spectre are registered trademarks of Cadence Design Systems, Inc. All others are the property of their respective holders.

Includes RSA BSAFE(R) Cryptographic or Security Protocol Software from RSA Security, Inc.

User: oj23092   Host: it075702.wks.bris.ac.uk   HostID: DE896A87   PID: 1112214
Memory  available: 11.8827 GB  physical: 16.2980 GB
Linux   : Rocky Linux release 8.9 (Green Obsidian)
CPU Type: Intel(R) Core(TM) i7-8700 CPU @ 3.20GHz
        Socket: Processors [Frequency] (Hyperthreaded Processor)
        0:       0 [3200.0] (  6 ),  1 [4299.8] (  7 ),  2 [3200.0] (  8 )
                 3 [3200.0] (  9 ),  4 [3200.0] ( 10 ),  5 [3200.0] ( 11 )
        
System load averages (1min, 5min, 15min) : 1.7 %, 1.4 %, 0.9 %
Hyperthreading is enabled
HPC is enabled


Simulating `input.scs' on it075702.wks.bris.ac.uk at 4:34:34 PM, Fri Apr 12, 2024 (process id: 1112214).
Current working directory: /home/oj23092/VLSI_Design_Lab/Sim/tb_ycircuitcustom/spectre/schematic/netlist
Command line:
     \
        /eda/cadence/2022-23/RHELx86/SPECTRE_21.10.751/tools.lnx86/bin/spectre  \
        -64 input.scs +escchars +log ../psf/spectre.out -format psfbin  \
        +rtsf -raw ../psf +aps +mt +lqtimeout 900 -maxw 5 -maxn 5  \
        +param /eda/cadence/ams/4.10/spectre/ams_range.lmts -env ade

Licensing Information:
[16:34:34.289706] Configured Lic search path (21.01-s002): 5280@ls-dc2-fen-p1.services.bris.ac.uk:5280@ls-dc2-fen-p0.services.bris.ac.uk

Licensing Information:
[16:34:35.104785] Periodic Lic check successful

Loading /eda/cadence/2022-23/RHELx86/SPECTRE_21.10.751/tools.lnx86/cmi/lib/64bit/5.0/libinfineon_sh.so ...
Loading /eda/cadence/2022-23/RHELx86/SPECTRE_21.10.751/tools.lnx86/cmi/lib/64bit/5.0/libphilips_o_sh.so ...
Loading /eda/cadence/2022-23/RHELx86/SPECTRE_21.10.751/tools.lnx86/cmi/lib/64bit/5.0/libphilips_sh.so ...
Loading /eda/cadence/2022-23/RHELx86/SPECTRE_21.10.751/tools.lnx86/cmi/lib/64bit/5.0/libsparam_sh.so ...
Loading /eda/cadence/2022-23/RHELx86/SPECTRE_21.10.751/tools.lnx86/cmi/lib/64bit/5.0/libstmodels_sh.so ...
Reading file:  /home/oj23092/VLSI_Design_Lab/Sim/tb_ycircuitcustom/spectre/schematic/netlist/input.scs
Reading file:  /eda/cadence/ams/4.10/spectre/ams_range.lmts

Warning from spectre during read of parameter soft limits file `/eda/cadence/ams/4.10/spectre/ams_range.lmts', during circuit read-in.
    WARNING (SPECTRE-8360): line 1511: `ac' is an undefined primitive device.
    WARNING (SPECTRE-8360): line 1512: `ac' is an undefined primitive device.
    WARNING (SPECTRE-8360): line 1513: `ac' is an undefined primitive device.
    WARNING (SPECTRE-8360): line 1514: `ac' is an undefined primitive device.
    WARNING (SPECTRE-8360): line 1515: `ac' is an undefined primitive device.
        Further occurrences of this warning will be suppressed.

Reading file:  /eda/cadence/2022-23/RHELx86/SPECTRE_21.10.751/tools.lnx86/spectre/etc/configs/spectre.cfg
Reading file:  /eda/cadence/ams/4.10/spectre/c35/soac/soac.scs
Reading file:  /eda/cadence/ams/4.10/spectre/c35/soac/processOption.scs
Reading file:  /eda/cadence/ams/4.10/spectre/c35/soac/process.scs
Reading file:  /eda/cadence/ams/4.10/spectre/c35/soac/soac.va

Warning from spectre during AHDL read-in.
    WARNING (VACOMP-2435): The environment variable CDS_AHDLCMI_ENABLE is no longer supported. Therefore, the simulator will use the default compiled C code flow.

Reading link:  /eda/cadence/2022-23/RHELx86/SPECTRE_21.10.751/tools.lnx86/spectre/etc/ahdl/constants.h
Reading file:  /eda/cadence/2022-23/RHELx86/SPECTRE_21.10.751/tools.lnx86/spectre/etc/ahdl/constants.vams
Reading link:  /eda/cadence/2022-23/RHELx86/SPECTRE_21.10.751/tools.lnx86/spectre/etc/ahdl/discipline.h
Reading file:  /eda/cadence/2022-23/RHELx86/SPECTRE_21.10.751/tools.lnx86/spectre/etc/ahdl/disciplines.vams
Reading file:  /eda/cadence/ams/4.10/spectre/c35/processOption/C35B4C3.scs
Reading file:  /eda/cadence/ams/4.10/spectre/c35/soac/cmos53.scs
Reading file:  /eda/cadence/ams/4.10/spectre/c35/soac/res.scs
Reading file:  /eda/cadence/ams/4.10/spectre/c35/soac/cap.scs
Reading file:  /eda/cadence/ams/4.10/spectre/c35/soac/bip.scs
Reading file:  /eda/cadence/ams/4.10/spectre/c35/soac/ind.scs
Reading file:  /eda/cadence/ams/4.10/spectre/c35/soac/esddiode.scs
Time for NDB Parsing: CPU = 77.056 ms, elapsed = 321.866 ms.
Time accumulated: CPU = 131.602 ms, elapsed = 321.868 ms.
Peak resident memory used = 161 Mbytes.

TCP: opening server port it075702.wks.bris.ac.uk:49693
Existing shared object for module modp_ahdl is up to date.
Installed compiled interface for modp_ahdl.
Existing shared object for module modn_ahdl is up to date.
Installed compiled interface for modn_ahdl.
Time for Elaboration: CPU = 16.187 ms, elapsed = 21.2719 ms.
Time accumulated: CPU = 147.852 ms, elapsed = 343.202 ms.
Peak resident memory used = 170 Mbytes.


Notice from spectre during hierarchy flattening.
    The value 'psf' specified for the 'checklimitdest' option will no longer be supported in future releases. Use 'spectre -h' to see other recommended values for the 'checklimitdest' option.


Time for EDB Visiting: CPU = 1.326 ms, elapsed = 1.89114 ms.
Time accumulated: CPU = 149.245 ms, elapsed = 345.158 ms.
Peak resident memory used = 172 Mbytes.

Loading /eda/cadence/2022-23/RHELx86/SPECTRE_21.10.751/tools.lnx86/mdl/lib/64bit/libSpectreEH_sh.so ...

Warning from spectre during initial setup.
    WARNING (SPECTRE-16460): SOAC_cvarm_vspsub:Specified subcircuit master `cvarm' was not found.
    WARNING (SPECTRE-16462): SOAC_cvarm_vspsub:Error in specification of subcircuit master. Assert is ignored.
    WARNING (SPECTRE-16460): SOAC_cvarm_vbs:Specified subcircuit master `cvarm' was not found.
    WARNING (SPECTRE-16462): SOAC_cvarm_vbs:Error in specification of subcircuit master. Assert is ignored.
    WARNING (SPECTRE-16460): SOAC_cvarm_vgb:Specified subcircuit master `cvarm' was not found.
    WARNING (SPECTRE-16462): SOAC_cvarm_vgb:Error in specification of subcircuit master. Assert is ignored.
    WARNING (SPECTRE-16460): SOAC_cvart_vspsub:Specified subcircuit master `cvart' was not found.
    WARNING (SPECTRE-16462): SOAC_cvart_vspsub:Error in specification of subcircuit master. Assert is ignored.
    WARNING (SPECTRE-16460): SOAC_cvart_vbs:Specified subcircuit master `cvart' was not found.
        Further occurrences of this warning will be suppressed.
    WARNING (SPECTRE-16462): SOAC_cvart_vbs:Error in specification of subcircuit master. Assert is ignored.
        Further occurrences of this warning will be suppressed.
Notice from spectre during initial setup.
    Ignorevaref=yes is ignored since all nodes are connected to Verilog-A modules.
Notice from spectre during topology check.
    Only one connection to the following 8 nodes:
        I4.MPD.psub!
        I4.MPC.psub!
        I4.MPB.psub!
        I4.MPA.psub!
        I4.MNC.psub!
        Further occurrences of this notice will be suppressed.
Notice from spectre during initial setup.
    Multithreading is disabled due to the size of the design being too small.


Global user options:
         psfversion = 1.4.0
            vabstol = 1e-06
            iabstol = 1e-12
               temp = 27
           homotopy = 5
              limit = delta
         compatible = spice2
               gmin = 1e-12
             rforce = 1
           maxnotes = 5
           maxwarns = 5
             digits = 5
               cols = 80
             pivrel = 0.001
           sensfile = ../psf/sens.output
     checklimitdest = psf
     enable_pre_ver = yes
      ignorezerovar = yes
               save = allpub
             reltol = 0.0001
               tnom = 27
             scalem = 1
              scale = 1

Scoped user options:

Circuit inventory:
              nodes 17
            bsim3v3 8     
          capacitor 1     
          modn_ahdl 4     
          modp_ahdl 4     
            vsource 5     

Analysis and control statement inventory:
               info 7     
               tran 1     

Output statements:
             .probe 0     
           .measure 0     
               save 0     

Design checks inventory:
          paramtest 8     
             assert 175   


Notice from spectre during initial setup.
    APS enabled.
    1 notice suppressed.
    72 warnings suppressed.

Time for parsing: CPU = 5.682 ms, elapsed = 305.981 ms.
Time accumulated: CPU = 154.982 ms, elapsed = 651.194 ms.
Peak resident memory used = 178 Mbytes.

~~~~~~~~~~~~~~~~~~~~~~
Pre-Simulation Summary
~~~~~~~~~~~~~~~~~~~~~~
   -   (APS) Multi-threading. The recommended number of threads is 1, consider adding +mt=1 on command line.
~~~~~~~~~~~~~~~~~~~~~~

Notice from spectre during transient analysis `tran'.
    No checklimit analysis defined for asserts. A default checklimit analysis 'SpectreChecklimitAnal' has been created with all asserts enabled.


************************************************
Transient Analysis `tran': time = (0 s -> 20 ns)
************************************************

Notice from spectre during IC analysis, during transient analysis `tran'.
    GminDC = 1 pS is large enough to noticeably affect the DC solution.
        dV(I4.net2) = 101.841 mV
        Use the `gmin_check' option to eliminate or expand this report.
Warning from spectre during check, during IC analysis, during transient analysis `tran'.
    WARNING (CMI-2943): Parameter checks have been ignored because the valid value for parameter 'trise' could not be found in 'C0'.

DC simulation time: CPU = 420 us, elapsed = 423.193 us.

Opening the PSF file ../psf/tran.tran.tran ...
Important parameter values:
    start = 0 s
    outputstart = 0 s
    stop = 20 ns
    step = 20 ps
    maxstep = 200 ps
    ic = all
    useprevic = no
    skipdc = no
    reltol = 10e-06
    abstol(V) = 1 uV
    abstol(I) = 1 pA
    temp = 27 C
    tnom = 27 C
    tempeffects = all
    errpreset = conservative
    method = gear2only
    lteratio = 10
    relref = alllocal
    cmin = 0 F
    gmin = 1 pS
    rabsshort = 1 mOhm


Notice from spectre during transient analysis `tran'.
    Multithreading is disabled due to the size of the design being too small.


Output and IC/nodeset summary:
                 save   5       (current)
                 save   17      (voltage)

    tran: time = 518.1 ps    (2.59 %), step = 45.99 ps     (230 m%)
SOAC: I4.MND.soac_m1       modn V(B,PSUB): LEAVING@  0us ;
SOAC: I4.MND.soac_m1       modn V(B,PSUB): ENTERING@ 0.0010637us duration:0.00106us ;
    tran: time = 1.52 ns      (7.6 %), step = 41.25 ps     (206 m%)
    tran: time = 2.514 ns    (12.6 %), step = 90.67 ps     (453 m%)

Warning from spectre at time = 3.01738 ns during transient analysis `tran'.
    WARNING (CMI-2139): I4.MNB: The bulk-drain junction current exceeds `imelt'.  The results computed by Spectre may be inaccurate because the junction current model has been linearized.
    WARNING (CMI-2144): I4.MNB: The bulk-drain junction current exceeds `imax'.
Warning from spectre at time = 3.01774 ns during transient analysis `tran'.
    WARNING (CMI-2139): I4.MNC: The bulk-drain junction current exceeds `imelt'.  The results computed by Spectre may be inaccurate because the junction current model has been linearized.
    WARNING (CMI-2144): I4.MNC: The bulk-drain junction current exceeds `imax'.
Notice from spectre at time = 3.02048 ns during transient analysis `tran'.
    I4.MNC: The bulk-drain junction leaves the linearized region.
    I4.MNC: The bulk-drain junction current no longer exceeds `imax'.
Notice from spectre at time = 3.02057 ns during transient analysis `tran'.
    I4.MNB: The bulk-drain junction leaves the linearized region.
    I4.MNB: The bulk-drain junction current no longer exceeds `imax'.

    tran: time = 3.513 ns    (17.6 %), step = 42.83 ps     (214 m%)
SOAC: I4.MND.soac_m1       modn V(B,PSUB): LEAVING@  0.00301007us ;
    tran: time = 4.539 ns    (22.7 %), step = 75.95 ps     (380 m%)
SOAC: I4.MND.soac_m1       modn V(B,PSUB): ENTERING@ 0.00500256us duration:0.00199us ;
    tran: time = 5.512 ns    (27.6 %), step = 36.71 ps     (184 m%)
    tran: time = 6.503 ns    (32.5 %), step = 27.21 ps     (136 m%)

Warning from spectre at time = 7.01742 ns during transient analysis `tran'.
    WARNING (CMI-2139): I4.MNB: The bulk-drain junction current exceeds `imelt'.  The results computed by Spectre may be inaccurate because the junction current model has been linearized.
    WARNING (CMI-2144): I4.MNB: The bulk-drain junction current exceeds `imax'.
Warning from spectre at time = 7.01776 ns during transient analysis `tran'.
    WARNING (CMI-2139): I4.MNC: The bulk-drain junction current exceeds `imelt'.  The results computed by Spectre may be inaccurate because the junction current model has been linearized.
    WARNING (CMI-2144): I4.MNC: The bulk-drain junction current exceeds `imax'.
Notice from spectre at time = 7.02048 ns during transient analysis `tran'.
    I4.MNC: The bulk-drain junction leaves the linearized region.
    I4.MNC: The bulk-drain junction current no longer exceeds `imax'.
Notice from spectre at time = 7.02056 ns during transient analysis `tran'.
    I4.MNB: The bulk-drain junction leaves the linearized region.
    I4.MNB: The bulk-drain junction current no longer exceeds `imax'.

    tran: time = 7.516 ns    (37.6 %), step = 43.18 ps     (216 m%)
SOAC: I4.MND.soac_m1       modn V(B,PSUB): LEAVING@  0.00701007us ;
    tran: time = 8.547 ns    (42.7 %), step = 78.42 ps     (392 m%)
SOAC: I4.MND.soac_m1       modn V(B,PSUB): ENTERING@ 0.00900481us duration:0.00199us ;
    tran: time = 9.539 ns    (47.7 %), step = 51.85 ps     (259 m%)
    tran: time = 10.52 ns    (52.6 %), step = 39.28 ps     (196 m%)

Warning from spectre at time = 11.0167 ns during transient analysis `tran'.
    WARNING (CMI-2139): I4.MNC: The bulk-drain junction current exceeds `imelt'.  The results computed by Spectre may be inaccurate because the junction current model has been linearized.
        Further occurrences of this warning will be suppressed.
    WARNING (CMI-2144): I4.MNC: The bulk-drain junction current exceeds `imax'.
        Further occurrences of this warning will be suppressed.
Notice from spectre at time = 11.0205 ns during transient analysis `tran'.
    I4.MNB: The bulk-drain junction leaves the linearized region.
        Further occurrences of this notice will be suppressed.
    I4.MNB: The bulk-drain junction current no longer exceeds `imax'.
        Further occurrences of this notice will be suppressed.

    tran: time = 11.5 ns     (57.5 %), step = 31.27 ps     (156 m%)
    tran: time = 12.58 ns    (62.9 %), step = 86.64 ps     (433 m%)
SOAC: I4.MND.soac_m1       modn V(B,PSUB): LEAVING@  0.0120043us ;
SOAC: I4.MND.soac_m1       modn V(B,PSUB): ENTERING@ 0.0130196us duration:0.00102us ;
    tran: time = 13.52 ns    (67.6 %), step = 48.78 ps     (244 m%)
    tran: time = 14.55 ns    (72.8 %), step = 98.41 ps     (492 m%)
    tran: time = 15.51 ns    (77.6 %), step = 28.66 ps     (143 m%)
SOAC: I4.MND.soac_m1       modn V(B,PSUB): LEAVING@  0.0150216us ;
    tran: time = 16.58 ns    (82.9 %), step = 89.9 ps      (450 m%)
SOAC: I4.MND.soac_m1       modn V(B,PSUB): ENTERING@ 0.017064us duration:0.00204us ;
    tran: time = 17.51 ns    (87.6 %), step = 42.35 ps     (212 m%)
    tran: time = 18.55 ns    (92.7 %), step = 98.19 ps     (491 m%)
    tran: time = 19.5 ns     (97.5 %), step = 42.98 ps     (215 m%)
Number of accepted tran steps =             2739

Maximum value achieved for any signal of each quantity: 
V: V(I4.net1) = 4.003 V
I: I(VA:p) = 3.333 mA

~~~~~~~~~~~~~~~~~~~~~~~~~~~~~~~~~
Post-Transient Simulation Summary
~~~~~~~~~~~~~~~~~~~~~~~~~~~~~~~~~
   -   To further speed up simulation, consider
          add ++aps on command line
   -   Non-default settings that could significantly slow down simulation
          errpreset = conservative, default moderate
          reltol = 10e-06, default 100e-06 (conservative)
   -   Features that may significantly slowing down simulation
          asserts = 59.4933 ms
~~~~~~~~~~~~~~~~~~~~~~~~~~~~~~~~~


During simulation, the CPU load for active processors is :
         0 (2.1 %)       1 (11.7 %)      2 (4.2 %)       3 (31.6 %)
         4 (2.1 %)       5 (4.2 %)       6 (3.1 %)       7 (1.1 %)
         8 (6.2 %)       9 (13.5 %)     10 (14.9 %)     11 (2.1 %)
        Total: 96.8%
Initial condition solution time: CPU = 442 us, elapsed = 444.889 us.
Intrinsic tran analysis time:    CPU = 307.146 ms, elapsed = 320.565 ms.
Total time required for tran analysis `tran': CPU = 310.296 ms, elapsed = 343.223 ms, util. = 90.4%.
Time accumulated: CPU = 469.548 ms, elapsed = 1.00252 s.
Peak resident memory used = 187 Mbytes.


Notice from spectre.
    8 notices suppressed.
    8 warnings suppressed.

finalTimeOP: writing operating point information to rawfile.

Opening the PSF file ../psf/finalTimeOP.info ...
modelParameter: writing model parameter values to rawfile.

Opening the PSF file ../psf/modelParameter.info ...
element: writing instance parameter values to rawfile.

Opening the PSF file ../psf/element.info ...
outputParameter: writing output parameter values to rawfile.

Opening the PSF file ../psf/outputParameter.info ...
designParamVals: writing netlist parameters to rawfile.

Opening the PSFASCII file ../psf/designParamVals.info ...
primitives: writing primitives to rawfile.

Opening the PSFASCII file ../psf/primitives.info.primitives ...
subckts: writing subcircuits to rawfile.

Opening the PSFASCII file ../psf/subckts.info.subckts ...
Licensing Information:
Lic Summary:
[16:34:35.378609] Cdslmd servers:5280@ls-dc2-fen-p1.services.bris.ac.uk:5280@ls-dc2-fen-p0.services.bris.ac.uk
[16:34:35.378624] Feature usage summary:
[16:34:35.378624] Virtuoso_Multi_mode_Simulation


Aggregate audit (4:34:35 PM, Fri Apr 12, 2024):
Time used: CPU = 480 ms, elapsed = 1.03 s, util. = 46.6%.
Time spent in licensing: elapsed = 162 ms, percentage of total = 15.7%.
Peak memory used = 189 Mbytes.
Simulation started at: 4:34:34 PM, Fri Apr 12, 2024, ended at: 4:34:35 PM, Fri Apr 12, 2024, with elapsed time (wall clock): 1.03 s.
spectre completes with 0 errors, 27 warnings, and 22 notices.
