
Spectre (R) Circuit Simulator
Version 21.1.0.751.isr19 64bit -- 22 May 2023
Copyright (C) 1989-2023 Cadence Design Systems, Inc. All rights reserved worldwide. Cadence and Spectre are registered trademarks of Cadence Design Systems, Inc. All others are the property of their respective holders.

Includes RSA BSAFE(R) Cryptographic or Security Protocol Software from RSA Security, Inc.

User: oj23092   Host: it075891.wks.bris.ac.uk   HostID: DE89A69F   PID: 249929
Memory  available: 12.3891 GB  physical: 16.2980 GB
Linux   : Rocky Linux release 8.9 (Green Obsidian)
CPU Type: Intel(R) Core(TM) i7-8700 CPU @ 3.20GHz
        Socket: Processors [Frequency] (Hyperthreaded Processor)
        0:       0 [3200.0] (  6 ),  1 [3200.0] (  7 ),  2 [3200.0] (  8 )
                 3 [4299.9] (  9 ),  4 [3200.0] ( 10 ),  5 [3200.0] ( 11 )
        
System load averages (1min, 5min, 15min) : 1.4 %, 0.7 %, 0.3 %
Hyperthreading is enabled
HPC is enabled


Simulating `input.scs' on it075891.wks.bris.ac.uk at 10:17:58 PM, Sat Apr 20, 2024 (process id: 249929).
Current working directory: /home/oj23092/VLSI_Design_Lab/Sim/lab2024/tb_ycircuit/adexl/results/data/MonteCarlo.1/1/lab2024:tb_ycircuit:1/groupRunDataDir/netlist
Command line:
     \
        /eda/cadence/2022-23/RHELx86/SPECTRE_21.10.751/tools.lnx86/bin/spectre  \
        -64 input.scs +escchars +log ../psf/spectre.out -format psfbin  \
        +rtsf -raw ../psf +aps +mt +lqtimeout 900 -maxw 5 -maxn 5  \
        +param /eda/cadence/ams/4.10/spectre/ams_range.lmts -env ade  \
        -ahdllibdir  \
        /home/oj23092/VLSI_Design_Lab/Sim/lab2024/tb_ycircuit/adexl/results/data/MonteCarlo.1/sharedData/Job2/ahdl/input.ahdlSimDB  \
        +logstatus

Licensing Information:
[22:17:58.289738] Configured Lic search path (21.01-s002): 5280@ls-dc2-fen-p1.services.bris.ac.uk:5280@ls-dc2-fen-p0.services.bris.ac.uk

Licensing Information:
[22:17:58.457225] Periodic Lic check successful

Loading /eda/cadence/2022-23/RHELx86/SPECTRE_21.10.751/tools.lnx86/cmi/lib/64bit/5.0/libinfineon_sh.so ...
Loading /eda/cadence/2022-23/RHELx86/SPECTRE_21.10.751/tools.lnx86/cmi/lib/64bit/5.0/libphilips_o_sh.so ...
Loading /eda/cadence/2022-23/RHELx86/SPECTRE_21.10.751/tools.lnx86/cmi/lib/64bit/5.0/libphilips_sh.so ...
Loading /eda/cadence/2022-23/RHELx86/SPECTRE_21.10.751/tools.lnx86/cmi/lib/64bit/5.0/libsparam_sh.so ...
Loading /eda/cadence/2022-23/RHELx86/SPECTRE_21.10.751/tools.lnx86/cmi/lib/64bit/5.0/libstmodels_sh.so ...
Reading file:  /home/oj23092/VLSI_Design_Lab/Sim/lab2024/tb_ycircuit/adexl/results/data/MonteCarlo.1/1/lab2024:tb_ycircuit:1/groupRunDataDir/netlist/input.scs
Reading file:  /eda/cadence/ams/4.10/spectre/ams_range.lmts

Warning from spectre during read of parameter soft limits file `/eda/cadence/ams/4.10/spectre/ams_range.lmts', during circuit read-in.
    WARNING (SPECTRE-8360): line 1511: `ac' is an undefined primitive device.
    WARNING (SPECTRE-8360): line 1512: `ac' is an undefined primitive device.
    WARNING (SPECTRE-8360): line 1513: `ac' is an undefined primitive device.
    WARNING (SPECTRE-8360): line 1514: `ac' is an undefined primitive device.
    WARNING (SPECTRE-8360): line 1515: `ac' is an undefined primitive device.
        Further occurrences of this warning will be suppressed.

Reading file:  /eda/cadence/2022-23/RHELx86/SPECTRE_21.10.751/tools.lnx86/spectre/etc/configs/spectre.cfg
Reading file:  /eda/cadence/ams/4.10/spectre/c35/soac/soac.scs
Reading file:  /eda/cadence/ams/4.10/spectre/c35/soac/processOption.scs
Reading file:  /eda/cadence/ams/4.10/spectre/c35/soac/process.scs
Reading file:  /eda/cadence/ams/4.10/spectre/c35/soac/soac.va

Warning from spectre during AHDL read-in.
    WARNING (VACOMP-2435): The environment variable CDS_AHDLCMI_ENABLE is no longer supported. Therefore, the simulator will use the default compiled C code flow.

Reading link:  /eda/cadence/2022-23/RHELx86/SPECTRE_21.10.751/tools.lnx86/spectre/etc/ahdl/constants.h
Reading file:  /eda/cadence/2022-23/RHELx86/SPECTRE_21.10.751/tools.lnx86/spectre/etc/ahdl/constants.vams
Reading link:  /eda/cadence/2022-23/RHELx86/SPECTRE_21.10.751/tools.lnx86/spectre/etc/ahdl/discipline.h
Reading file:  /eda/cadence/2022-23/RHELx86/SPECTRE_21.10.751/tools.lnx86/spectre/etc/ahdl/disciplines.vams
Reading file:  /eda/cadence/ams/4.10/spectre/c35/processOption/C35B4C3.scs
Reading file:  /eda/cadence/ams/4.10/spectre/c35/soac/cmos53.scs
Reading file:  /eda/cadence/ams/4.10/spectre/c35/soac/res.scs
Reading file:  /eda/cadence/ams/4.10/spectre/c35/soac/cap.scs
Reading file:  /eda/cadence/ams/4.10/spectre/c35/soac/bip.scs
Reading file:  /eda/cadence/ams/4.10/spectre/c35/soac/ind.scs
Reading file:  /eda/cadence/ams/4.10/spectre/c35/soac/esddiode.scs
Time for NDB Parsing: CPU = 73.155 ms, elapsed = 307.415 ms.
Time accumulated: CPU = 131.441 ms, elapsed = 307.418 ms.
Peak resident memory used = 162 Mbytes.

TCP: opening server port it075891.wks.bris.ac.uk:51775
Existing shared object for module modp_ahdl is up to date.
Installed compiled interface for modp_ahdl.
Existing shared object for module modn_ahdl is up to date.
Installed compiled interface for modn_ahdl.
Time for Elaboration: CPU = 19.732 ms, elapsed = 23.7389 ms.
Time accumulated: CPU = 151.235 ms, elapsed = 331.219 ms.
Peak resident memory used = 172 Mbytes.


Notice from spectre during hierarchy flattening.
    The value 'psf' specified for the 'checklimitdest' option will no longer be supported in future releases. Use 'spectre -h' to see other recommended values for the 'checklimitdest' option.


Time for EDB Visiting: CPU = 1.354 ms, elapsed = 1.98507 ms.
Time accumulated: CPU = 152.653 ms, elapsed = 333.267 ms.
Peak resident memory used = 174 Mbytes.

Loading /eda/cadence/2022-23/RHELx86/SPECTRE_21.10.751/tools.lnx86/mdl/lib/64bit/libSpectreEH_sh.so ...

Warning from spectre during initial setup.
    WARNING (SPECTRE-16460): SOAC_cvarm_vspsub:Specified subcircuit master `cvarm' was not found.
    WARNING (SPECTRE-16462): SOAC_cvarm_vspsub:Error in specification of subcircuit master. Assert is ignored.
    WARNING (SPECTRE-16460): SOAC_cvarm_vbs:Specified subcircuit master `cvarm' was not found.
    WARNING (SPECTRE-16462): SOAC_cvarm_vbs:Error in specification of subcircuit master. Assert is ignored.
    WARNING (SPECTRE-16460): SOAC_cvarm_vgb:Specified subcircuit master `cvarm' was not found.
    WARNING (SPECTRE-16462): SOAC_cvarm_vgb:Error in specification of subcircuit master. Assert is ignored.
    WARNING (SPECTRE-16460): SOAC_cvart_vspsub:Specified subcircuit master `cvart' was not found.
    WARNING (SPECTRE-16462): SOAC_cvart_vspsub:Error in specification of subcircuit master. Assert is ignored.
    WARNING (SPECTRE-16460): SOAC_cvart_vbs:Specified subcircuit master `cvart' was not found.
        Further occurrences of this warning will be suppressed.
    WARNING (SPECTRE-16462): SOAC_cvart_vbs:Error in specification of subcircuit master. Assert is ignored.
        Further occurrences of this warning will be suppressed.
Notice from spectre during initial setup.
    Ignorevaref=yes is ignored since all nodes are connected to Verilog-A modules.
Notice from spectre during topology check.
    Only one connection to the following 8 nodes:
        I0.MPD.psub!
        I0.MPC.psub!
        I0.MPB.psub!
        I0.MPA.psub!
        I0.MNC.psub!
        Further occurrences of this notice will be suppressed.
Notice from spectre during initial setup.
    Multithreading is disabled due to the size of the design being too small.


Global user options:
         psfversion = 1.4.0
            vabstol = 1e-06
            iabstol = 1e-12
               temp = 27
           homotopy = 5
              limit = delta
         compatible = spice2
               gmin = 1e-12
             rforce = 1
           maxnotes = 5
           maxwarns = 5
             digits = 5
               cols = 80
             pivrel = 0.001
           sensfile = ../psf/sens.output
     checklimitdest = psf
     enable_pre_ver = yes
      ignorezerovar = yes
               save = allpub
             reltol = 0.0001
               tnom = 27
             scalem = 1
              scale = 1

Scoped user options:

Circuit inventory:
              nodes 17
            bsim3v3 8     
          capacitor 1     
          modn_ahdl 4     
          modp_ahdl 4     
            vsource 5     

Analysis and control statement inventory:
               info 7     
         montecarlo 1     
               tran 1     

Output statements:
             .probe 0     
           .measure 0     
               save 1     

Design checks inventory:
          paramtest 8     
             assert 175   


Notice from spectre during initial setup.
    APS enabled.
    1 notice suppressed.
    72 warnings suppressed.

Time for parsing: CPU = 5.72 ms, elapsed = 346.69 ms.
Time accumulated: CPU = 158.427 ms, elapsed = 680.011 ms.
Peak resident memory used = 180 Mbytes.

~~~~~~~~~~~~~~~~~~~~~~
Pre-Simulation Summary
~~~~~~~~~~~~~~~~~~~~~~
   -   (APS) Multi-threading. The recommended number of threads is 1, consider adding +mt=1 on command line.
~~~~~~~~~~~~~~~~~~~~~~

**************************************************
Monte Carlo Analysis `mc1': iteration = (1 -> 200)
**************************************************
Important parameter values:
    seed = 12345
    sampling = standard
    variations = all
    firstrun = 1
    numruns = 200
    nullmfactorcorrelation = no
    donominal = yes
    method = standard

**** Performing nominal run for `mc1'

Notice from spectre during transient analysis `tran', during Monte Carlo analysis `mc1'.
    No checklimit analysis defined for asserts. A default checklimit analysis 'SpectreChecklimitAnal' has been created with all asserts enabled.


************************************************
Transient Analysis `tran': time = (0 s -> 20 ns)
************************************************

Notice from spectre during IC analysis, during transient analysis `tran', during Monte Carlo analysis `mc1'.
    GminDC = 1 pS is large enough to noticeably affect the DC solution.
        dV(I0.net2) = 62.8848 mV
        Use the `gmin_check' option to eliminate or expand this report.
Warning from spectre during check, during IC analysis, during transient analysis `tran', during Monte Carlo analysis `mc1'.
    WARNING (CMI-2943): Parameter checks have been ignored because the valid value for parameter 'trise' could not be found in 'C0'.

DC simulation time: CPU = 416 us, elapsed = 422.955 us.

Opening the PSF file ../psf/nom/tran.tran.tran ...
Important parameter values:
    start = 0 s
    outputstart = 0 s
    stop = 20 ns
    step = 20 ps
    maxstep = 200 ps
    ic = all
    useprevic = no
    skipdc = no
    reltol = 10e-06
    abstol(V) = 1 uV
    abstol(I) = 1 pA
    temp = 27 C
    tnom = 27 C
    tempeffects = all
    errpreset = conservative
    method = gear2only
    lteratio = 10
    relref = alllocal
    cmin = 0 F
    gmin = 1 pS
    rabsshort = 1 mOhm


Notice from spectre during transient analysis `tran', during Monte Carlo analysis `mc1'.
    Multithreading is disabled due to the size of the design being too small.


Output and IC/nodeset summary:
                 save   5       (current)
                 save   17      (voltage)

    tran: time = 525.5 ps    (2.63 %), step = 28.93 ps     (145 m%)
    tran: time = 1.518 ns    (7.59 %), step = 37.77 ps     (189 m%)
    tran: time = 2.513 ns    (12.6 %), step = 28.77 ps     (144 m%)
    tran: time = 3.532 ns    (17.7 %), step = 41.65 ps     (208 m%)
    tran: time = 4.504 ns    (22.5 %), step = 20.65 ps     (103 m%)
    tran: time = 5.511 ns    (27.6 %), step = 18.99 ps      (95 m%)
SOAC: I0.MND.soac_m1       modn V(B,PSUB): LEAVING@  0.00500272us ;
SOAC: I0.MNA.soac_m1       modn V(B,PSUB): LEAVING@  0.00500732us ;
SOAC: I0.MNA.soac_m1       modn V(B,PSUB): ENTERING@ 0.00618968us duration:0.00118us ;
SOAC: I0.MND.soac_m1       modn V(B,PSUB): ENTERING@ 0.00619026us duration:0.00119us ;
    tran: time = 6.515 ns    (32.6 %), step = 18.12 ps    (90.6 m%)
    tran: time = 7.51 ns     (37.6 %), step = 26.42 ps     (132 m%)
    tran: time = 8.509 ns    (42.5 %), step = 17.21 ps      (86 m%)
    tran: time = 9.515 ns    (47.6 %), step = 20.86 ps     (104 m%)
SOAC: I0.MND.soac_m1       modn V(B,PSUB): LEAVING@  0.00900268us ;
SOAC: I0.MNA.soac_m1       modn V(B,PSUB): LEAVING@  0.00900732us ;
SOAC: I0.MNA.soac_m1       modn V(B,PSUB): ENTERING@ 0.0101657us duration:0.00116us ;
SOAC: I0.MND.soac_m1       modn V(B,PSUB): ENTERING@ 0.0101831us duration:0.00118us ;
    tran: time = 10.5 ns     (52.5 %), step = 13.15 ps    (65.7 m%)
SOAC: I0.MND.soac_m1       modn V(B,PSUB): LEAVING@  0.0102674us ;
SOAC: I0.MND.soac_m1       modn V(B,PSUB): ENTERING@ 0.0114158us duration:0.00115us ;
    tran: time = 11.51 ns    (57.6 %), step = 21.7 ps      (108 m%)
    tran: time = 12.51 ns    (62.6 %), step = 14.77 ps    (73.9 m%)
SOAC: I0.MND.soac_m1       modn V(B,PSUB): LEAVING@  0.0122439us ;
    tran: time = 13.51 ns    (67.5 %), step = 24.81 ps     (124 m%)
    tran: time = 14.52 ns    (72.6 %), step = 27.35 ps     (137 m%)
SOAC: I0.MND.soac_m1       modn V(B,PSUB): ENTERING@ 0.015425us duration:0.00318us ;
    tran: time = 15.52 ns    (77.6 %), step = 22.69 ps     (113 m%)
    tran: time = 16.51 ns    (82.6 %), step = 14.92 ps    (74.6 m%)
SOAC: I0.MND.soac_m1       modn V(B,PSUB): LEAVING@  0.0162439us ;
    tran: time = 17.51 ns    (87.5 %), step = 24.9 ps      (125 m%)
    tran: time = 18.52 ns    (92.6 %), step = 27.32 ps     (137 m%)
SOAC: I0.MND.soac_m1       modn V(B,PSUB): ENTERING@ 0.019425us duration:0.00318us ;
    tran: time = 19.52 ns    (97.6 %), step = 22.68 ps     (113 m%)
Number of accepted tran steps =             2619

Maximum value achieved for any signal of each quantity: 
V: V(I0.net1) = 3.628 V
I: I(V:p) = 326 uA

~~~~~~~~~~~~~~~~~~~~~~~~~~~~~~~~~
Post-Transient Simulation Summary
~~~~~~~~~~~~~~~~~~~~~~~~~~~~~~~~~
   -   To further speed up simulation, consider
          add ++aps on command line
   -   Non-default settings that could significantly slow down simulation
          errpreset = conservative, default moderate
          reltol = 10e-06, default 100e-06 (conservative)
   -   Features that may significantly slowing down simulation
          asserts = 56.911 ms
~~~~~~~~~~~~~~~~~~~~~~~~~~~~~~~~~


During simulation, the CPU load for active processors is :
         0 (14.7 %)      1 (28.4 %)      2 (4.2 %)       3 (11.5 %)
         4 (2.1 %)       5 (1.1 %)       6 (3.1 %)       7 (7.2 %)
         8 (1.0 %)       9 (2.1 %)      10 (2.1 %)      11 (3.1 %)
        Total: 80.6%
Initial condition solution time: CPU = 438 us, elapsed = 444.889 us.
Intrinsic tran analysis time:    CPU = 284.564 ms, elapsed = 296.868 ms.
Total time required for tran analysis `tran': CPU = 287.581 ms, elapsed = 317.979 ms, util. = 90.4%.
Time accumulated: CPU = 450.479 ms, elapsed = 1.01028 s.
Peak resident memory used = 189 Mbytes.

finalTimeOP: writing operating point information to rawfile.

Opening the PSF file ../psf/nom/finalTimeOP.info ...
modelParameter: writing model parameter values to rawfile.

Opening the PSF file ../psf/nom/modelParameter.info ...
element: writing instance parameter values to rawfile.

Opening the PSF file ../psf/nom/element.info ...
outputParameter: writing output parameter values to rawfile.

Opening the PSF file ../psf/nom/outputParameter.info ...
designParamVals: writing netlist parameters to rawfile.

Opening the PSFASCII file ../psf/nom/designParamVals.info ...
primitives: writing primitives to rawfile.

Opening the PSFASCII file ../psf/nom/primitives.info.primitives ...
subckts: writing subcircuits to rawfile.

Opening the PSFASCII file ../psf/nom/subckts.info.subckts ...
Opening process scalar file:  /home/oj23092/VLSI_Design_Lab/Sim/lab2024/tb_ycircuit/adexl/results/data/MonteCarlo.1/1/lab2024:tb_ycircuit:1/groupRunDataDir/netlist/../psf/../monteCarlo/processData
Opening process param file:  /home/oj23092/VLSI_Design_Lab/Sim/lab2024/tb_ycircuit/adexl/results/data/MonteCarlo.1/1/lab2024:tb_ycircuit:1/groupRunDataDir/netlist/../psf/../monteCarlo/processParam
Opening process full param file:  /home/oj23092/VLSI_Design_Lab/Sim/lab2024/tb_ycircuit/adexl/results/data/MonteCarlo.1/1/lab2024:tb_ycircuit:1/groupRunDataDir/netlist/../psf/mc1.process_full.mcparam
Opening process correlation param file:  /home/oj23092/VLSI_Design_Lab/Sim/lab2024/tb_ycircuit/adexl/results/data/MonteCarlo.1/1/lab2024:tb_ycircuit:1/groupRunDataDir/netlist/../psf/mc1.process.correlate.mcparam
Opening mismatch full param file:  /home/oj23092/VLSI_Design_Lab/Sim/lab2024/tb_ycircuit/adexl/results/data/MonteCarlo.1/1/lab2024:tb_ycircuit:1/groupRunDataDir/netlist/../psf/mc1.mismatch_full.mcparam
Opening mismatch correlation param file:  /home/oj23092/VLSI_Design_Lab/Sim/lab2024/tb_ycircuit/adexl/results/data/MonteCarlo.1/1/lab2024:tb_ycircuit:1/groupRunDataDir/netlist/../psf/mc1.mismatch.correlate.mcparam
Opening iteration number and data-directory mapping file:  /home/oj23092/VLSI_Design_Lab/Sim/lab2024/tb_ycircuit/adexl/results/data/MonteCarlo.1/1/lab2024:tb_ycircuit:1/groupRunDataDir/netlist/../psf/mc1.mapping

Statistical parameters:
    Defined process parameters: 629
    Defined mismatch parameters (subckt based): 86
    Non-referenced mismatch parameters: 86
    Number of random variables: 629
    Gaussian truncation for process parameters: 4.00 sigma
    Gaussian truncation for mismatch parameters: 4.00 sigma


Opening the PSF file ../psf/mc1_tran.montecarlo ...

Opening the PSF file ../psf/mc1_finalTimeOP.montecarlo ...

Opening the PSF file ../psf/mc1_modelParameter.montecarlo ...

Opening the PSF file ../psf/mc1_element.montecarlo ...

Opening the PSF file ../psf/mc1_outputParameter.montecarlo ...

Opening the PSF file ../psf/mc1_designParamVals.montecarlo ...

Opening the PSF file ../psf/mc1_primitives.montecarlo ...

Opening the PSF file ../psf/mc1_subckts.montecarlo ...

**** Performing monte carlo loop for `mc1'

1              0.00% 

************************************************
Transient Analysis `tran': time = (0 s -> 20 ns)
************************************************

Opening the PSF file ../psf/mc1_separate/001/tran.tran.tran ...

Notice from spectre at iteration = 1 during IC analysis, during transient analysis `tran', during Monte Carlo analysis `mc1'.
    GminDC = 1 pS is large enough to noticeably affect the DC solution.
        dV(I0.net2) = 62.8848 mV
        Use the `gmin_check' option to eliminate or expand this report.
Warning from spectre at iteration = 1 during check, during IC analysis, during transient analysis `tran', during Monte Carlo analysis `mc1'.
    WARNING (CMI-2943): Parameter checks have been ignored because the valid value for parameter 'trise' could not be found in 'C0'.

DC simulation time: CPU = 362 us, elapsed = 361.919 us.
Important parameter values:
    start = 0 s
    outputstart = 0 s
    stop = 20 ns
    step = 20 ps
    maxstep = 200 ps
    ic = all
    useprevic = no
    skipdc = no
    reltol = 10e-06
    abstol(V) = 1 uV
    abstol(I) = 1 pA
    temp = 27 C
    tnom = 27 C
    tempeffects = all
    errpreset = conservative
    method = gear2only
    lteratio = 10
    relref = alllocal
    cmin = 0 F
    gmin = 1 pS
    rabsshort = 1 mOhm


Notice from spectre at iteration = 1 during transient analysis `tran', during Monte Carlo analysis `mc1'.
    Multithreading is disabled due to the size of the design being too small.


Output and IC/nodeset summary:
                 save   5       (current)
                 save   17      (voltage)


Opening the PSF file ../psf/mc1_tranViolations.montecarlo ...
    tran: time = 525.5 ps    (2.63 %), step = 28.93 ps     (145 m%)
    tran: time = 1.518 ns    (7.59 %), step = 37.77 ps     (189 m%)
    tran: time = 2.513 ns    (12.6 %), step = 28.77 ps     (144 m%)
    tran: time = 3.532 ns    (17.7 %), step = 41.65 ps     (208 m%)
    tran: time = 4.504 ns    (22.5 %), step = 20.65 ps     (103 m%)
    tran: time = 5.511 ns    (27.6 %), step = 18.99 ps      (95 m%)
SOAC: I0.MND.soac_m1       modn V(B,PSUB): LEAVING@  0.00500272us ;
SOAC: I0.MNA.soac_m1       modn V(B,PSUB): LEAVING@  0.00500732us ;
SOAC: I0.MNA.soac_m1       modn V(B,PSUB): ENTERING@ 0.00618968us duration:0.00118us ;
SOAC: I0.MND.soac_m1       modn V(B,PSUB): ENTERING@ 0.00619026us duration:0.00119us ;
    tran: time = 6.515 ns    (32.6 %), step = 18.12 ps    (90.6 m%)
    tran: time = 7.51 ns     (37.6 %), step = 26.42 ps     (132 m%)
    tran: time = 8.509 ns    (42.5 %), step = 17.21 ps      (86 m%)
    tran: time = 9.515 ns    (47.6 %), step = 20.86 ps     (104 m%)
SOAC: I0.MND.soac_m1       modn V(B,PSUB): LEAVING@  0.00900268us ;
SOAC: I0.MNA.soac_m1       modn V(B,PSUB): LEAVING@  0.00900732us ;
SOAC: I0.MNA.soac_m1       modn V(B,PSUB): ENTERING@ 0.0101657us duration:0.00116us ;
SOAC: I0.MND.soac_m1       modn V(B,PSUB): ENTERING@ 0.0101831us duration:0.00118us ;
    tran: time = 10.5 ns     (52.5 %), step = 13.15 ps    (65.7 m%)
SOAC: I0.MND.soac_m1       modn V(B,PSUB): LEAVING@  0.0102674us ;
SOAC: I0.MND.soac_m1       modn V(B,PSUB): ENTERING@ 0.0114158us duration:0.00115us ;
    tran: time = 11.51 ns    (57.6 %), step = 21.7 ps      (108 m%)
    tran: time = 12.51 ns    (62.6 %), step = 14.77 ps    (73.9 m%)
SOAC: I0.MND.soac_m1       modn V(B,PSUB): LEAVING@  0.0122439us ;
    tran: time = 13.51 ns    (67.5 %), step = 24.81 ps     (124 m%)
    tran: time = 14.52 ns    (72.6 %), step = 27.35 ps     (137 m%)
SOAC: I0.MND.soac_m1       modn V(B,PSUB): ENTERING@ 0.015425us duration:0.00318us ;
    tran: time = 15.52 ns    (77.6 %), step = 22.69 ps     (113 m%)
    tran: time = 16.51 ns    (82.6 %), step = 14.92 ps    (74.6 m%)
SOAC: I0.MND.soac_m1       modn V(B,PSUB): LEAVING@  0.0162439us ;
    tran: time = 17.51 ns    (87.5 %), step = 24.9 ps      (125 m%)
    tran: time = 18.52 ns    (92.6 %), step = 27.32 ps     (137 m%)
SOAC: I0.MND.soac_m1       modn V(B,PSUB): ENTERING@ 0.019425us duration:0.00318us ;
    tran: time = 19.52 ns    (97.6 %), step = 22.68 ps     (113 m%)
Number of accepted tran steps =             2619

Maximum value achieved for any signal of each quantity: 
V: V(I0.net1) = 3.628 V
I: I(V:p) = 326 uA

~~~~~~~~~~~~~~~~~~~~~~~~~~~~~~~~~
Post-Transient Simulation Summary
~~~~~~~~~~~~~~~~~~~~~~~~~~~~~~~~~
   -   To further speed up simulation, consider
          add ++aps on command line
   -   Non-default settings that could significantly slow down simulation
          errpreset = conservative, default moderate
          reltol = 10e-06, default 100e-06 (conservative)
~~~~~~~~~~~~~~~~~~~~~~~~~~~~~~~~~


During simulation, the CPU load for active processors is :
         0 (10.8 %)      1 (41.9 %)      2 (3.1 %)       3 (8.4 %)
         4 (1.5 %)       6 (2.3 %)       7 (5.3 %)       9 (1.5 %)
        10 (2.3 %)      11 (2.3 %)      
        Total: 80.8%
Initial condition solution time: CPU = 378 us, elapsed = 379.801 us.
Intrinsic tran analysis time:    CPU = 247.851 ms, elapsed = 258.32 ms.
Total time required for tran analysis `tran': CPU = 249.388 ms, elapsed = 267.763 ms, util. = 93.1%.
Time accumulated: CPU = 724.727 ms, elapsed = 1.34876 s.
Peak resident memory used = 196 Mbytes.

finalTimeOP: writing operating point information to rawfile.

Opening the PSF file ../psf/mc1_separate/001/finalTimeOP.info ...
modelParameter: writing model parameter values to rawfile.

Opening the PSF file ../psf/mc1_separate/001/modelParameter.info ...
element: writing instance parameter values to rawfile.

Opening the PSF file ../psf/mc1_separate/001/element.info ...

Spectre received SIGHUP sent from PID: 249926 with UID: 524544.
Process hierarchy of PID 249926 :
    PID        COMMAND
    249926     /eda/cadence/2022-23/RHELx86/IC_6.1.8.320/tools/bin/64bit/cdsServIpc -c 57117 -n 4 -r 0 -x cd /home/oj23092/VLSI_Design_Lab/Sim/lab2024/tb_ycircuit/adexl/results/data/MonteCarlo.1/1/lab2024:tb_ycircuit:1/groupRunDataDir/netlist ; ./runSimulation 
    249636     /eda/cadence/2022-23/RHELx86/IC_6.1.8.320/tools.lnx86/dfII/bin/64bit/virtuoso -noautostart -mpssession virtuoso225598 -mpshost it075891.wks.bris.ac.uk -davinciService DaVinciService_225598_1713642962 -log /home/oj23092/VLSI_Design_Lab/logs_oj23092/logs0/Job2.log2 -licenseLockFileName /home/oj23092/VLSI_Design_Lab/.tmp_oj23092/.it075891.wks.bris.ac.uk_225598 -interactiveA -interactiveE -interactiveRTT -nostdin -nographE -axlChildIdFlag 2 
    249529     /bin/sh /eda/cadence/2022-23/RHELx86/IC_6.1.8.320/share/bin/cdsXvfb-run -a -s -screen 0 1024x868x24 /eda/cadence/2022-23/RHELx86/IC_6.1.8.320/tools.lnx86/dfII/bin/64bit/virtuoso -noautostart -mpssession virtuoso225598 -mpshost it075891.wks.bris.ac.uk -davinciService DaVinciService_225598_1713642962 -log /home/oj23092/VLSI_Design_Lab/logs_oj23092/logs0/Job2.log2 -licenseLockFileName /home/oj23092/VLSI_Design_Lab/.tmp_oj23092/.it075891.wks.bris.ac.uk_225598 -interactiveA -interactiveE -interactiveRTT -nostdin -nographE -axlChildIdFlag 2 
    249528     /bin/sh /home/oj23092/VLSI_Design_Lab/.tmp_oj23092/.cmddir0/runICRP2 
    249527     /eda/cadence/2022-23/RHELx86/IC_6.1.8.320/tools/bin/64bit/cdsServIpc -c 45255 -n 16 -r 10 -x /home/oj23092/VLSI_Design_Lab/.tmp_oj23092/.cmddir0/runICRP2 
    225598     /eda/cadence/2022-23/RHELx86/IC_6.1.8.320/tools/dfII/bin/64bit/virtuoso 
    225570     /bin/csh -f /eda/cadence/ams/4.10/cds/bin/ams_cds 
    225162     /bin/bash 
    225153     /usr/bin/konsole 
    223159     /usr/bin/plasmashell 
    223042     /usr/bin/plasma_session 
    222729     startkde 
    222727     /usr/bin/dbus-run-session /etc/x2go/Xsession 
    222619     /bin/bash /usr/bin/x2goruncommand 128 221686 oj23092-128-1713642572_stDKDE_dp32 43393 startkde nosnd D 
About to end simulation, please wait for a moment...
Licensing Information:
Lic Summary:
[22:17:59.073227] Cdslmd servers:5280@ls-dc2-fen-p1.services.bris.ac.uk:5280@ls-dc2-fen-p0.services.bris.ac.uk
[22:17:59.073250] Feature usage summary:
[22:17:59.073250] Virtuoso_Multi_mode_Simulation


Warning from spectre during info `element', during Monte Carlo analysis `mc1'.
    WARNING (SPECTRE-16002): Monte Carlo iteration 1 terminated prematurely because of the following error(s):
Error found by spectre during info `element', during Monte Carlo analysis `mc1'.
    ERROR (SPECTRE-25): 
        Message from ADE: Simulation stopped because you selected the 'Stop' command available in the context menu of the corresponding history in Run Summary assistant.nICRP2 


Aggregate audit (10:17:59 PM, Sat Apr 20, 2024):
Time used: CPU = 734 ms, elapsed = 1.37 s, util. = 53.4%.
Time spent in licensing: elapsed = 164 ms, percentage of total = 11.9%.
Peak memory used = 198 Mbytes.
Simulation started at: 10:17:58 PM, Sat Apr 20, 2024, ended at: 10:17:59 PM, Sat Apr 20, 2024, with elapsed time (wall clock): 1.37 s.
spectre completes with 1 error, 19 warnings, and 12 notices.
spectre terminated prematurely due to fatal error.
