
Spectre (R) Circuit Simulator
Version 21.1.0.751.isr19 64bit -- 22 May 2023
Copyright (C) 1989-2023 Cadence Design Systems, Inc. All rights reserved worldwide. Cadence and Spectre are registered trademarks of Cadence Design Systems, Inc. All others are the property of their respective holders.

Includes RSA BSAFE(R) Cryptographic or Security Protocol Software from RSA Security, Inc.

User: oj23092   Host: it075679.wks.bris.ac.uk   HostID: DE89F087   PID: 905787
Memory  available: 9.6263 GB  physical: 14.0528 GB
Linux   : Rocky Linux release 8.9 (Green Obsidian)
CPU Type: Intel(R) Core(TM) i7-8700 CPU @ 3.20GHz
        Socket: Processors [Frequency] (Hyperthreaded Processor)
        0:       0 [3200.0] (  6 ),  1 [3200.0] (  7 ),  2 [3200.0] (  8 )
                 3 [3200.0] (  9 ),  4 [3200.0] ( 10 ),  5 [4280.2] ( 11 )
        
System load averages (1min, 5min, 15min) : 7.3 %, 3.9 %, 3.2 %
Hyperthreading is enabled
HPC is enabled


Simulating `input.scs' on it075679.wks.bris.ac.uk at 3:53:00 PM, Mon Mar 11, 2024 (process id: 905787).
Current working directory: /home/oj23092/VLSI_Design_Lab/Sim/lab2024/tb_invParam/adexl/results/data/MonteCarlo.0/1/lab2024:tb_invParam:1/groupRunDataDir/netlist
Command line:
     \
        /eda/cadence/2022-23/RHELx86/SPECTRE_21.10.751/tools.lnx86/bin/spectre  \
        -64 input.scs +escchars +log ../psf/spectre.out -format psfbin  \
        +rtsf -raw ../psf +aps +mt +lqtimeout 900 -maxw 5 -maxn 5  \
        +param /eda/cadence/ams/4.10/spectre/ams_range.lmts -env ade  \
        -ahdllibdir  \
        /home/oj23092/VLSI_Design_Lab/Sim/lab2024/tb_invParam/adexl/results/data/MonteCarlo.0/sharedData/Job2/ahdl/input.ahdlSimDB  \
        +logstatus

Licensing Information:
[15:53:01.289658] Configured Lic search path (21.01-s002): 5280@ls-dc2-fen-p1.services.bris.ac.uk:5280@ls-dc2-fen-p0.services.bris.ac.uk

Licensing Information:
[15:53:04.031019] Periodic Lic check successful

Loading /eda/cadence/2022-23/RHELx86/SPECTRE_21.10.751/tools.lnx86/cmi/lib/64bit/5.0/libinfineon_sh.so ...
Loading /eda/cadence/2022-23/RHELx86/SPECTRE_21.10.751/tools.lnx86/cmi/lib/64bit/5.0/libphilips_o_sh.so ...
Loading /eda/cadence/2022-23/RHELx86/SPECTRE_21.10.751/tools.lnx86/cmi/lib/64bit/5.0/libphilips_sh.so ...
Loading /eda/cadence/2022-23/RHELx86/SPECTRE_21.10.751/tools.lnx86/cmi/lib/64bit/5.0/libsparam_sh.so ...
Loading /eda/cadence/2022-23/RHELx86/SPECTRE_21.10.751/tools.lnx86/cmi/lib/64bit/5.0/libstmodels_sh.so ...
Reading file:  /home/oj23092/VLSI_Design_Lab/Sim/lab2024/tb_invParam/adexl/results/data/MonteCarlo.0/1/lab2024:tb_invParam:1/groupRunDataDir/netlist/input.scs
Reading file:  /eda/cadence/ams/4.10/spectre/ams_range.lmts

Warning from spectre during read of parameter soft limits file `/eda/cadence/ams/4.10/spectre/ams_range.lmts', during circuit read-in.
    WARNING (SPECTRE-8360): line 1511: `ac' is an undefined primitive device.
    WARNING (SPECTRE-8360): line 1512: `ac' is an undefined primitive device.
    WARNING (SPECTRE-8360): line 1513: `ac' is an undefined primitive device.
    WARNING (SPECTRE-8360): line 1514: `ac' is an undefined primitive device.
    WARNING (SPECTRE-8360): line 1515: `ac' is an undefined primitive device.
        Further occurrences of this warning will be suppressed.

Reading file:  /eda/cadence/2022-23/RHELx86/SPECTRE_21.10.751/tools.lnx86/spectre/etc/configs/spectre.cfg
Reading file:  /eda/cadence/ams/4.10/spectre/c35/soac/soac.scs
Reading file:  /eda/cadence/ams/4.10/spectre/c35/soac/processOption.scs
Reading file:  /eda/cadence/ams/4.10/spectre/c35/soac/process.scs
Reading file:  /eda/cadence/ams/4.10/spectre/c35/soac/soac.va

Warning from spectre during AHDL read-in.
    WARNING (VACOMP-2435): The environment variable CDS_AHDLCMI_ENABLE is no longer supported. Therefore, the simulator will use the default compiled C code flow.

Reading link:  /eda/cadence/2022-23/RHELx86/SPECTRE_21.10.751/tools.lnx86/spectre/etc/ahdl/constants.h
Reading file:  /eda/cadence/2022-23/RHELx86/SPECTRE_21.10.751/tools.lnx86/spectre/etc/ahdl/constants.vams
Reading link:  /eda/cadence/2022-23/RHELx86/SPECTRE_21.10.751/tools.lnx86/spectre/etc/ahdl/discipline.h
Reading file:  /eda/cadence/2022-23/RHELx86/SPECTRE_21.10.751/tools.lnx86/spectre/etc/ahdl/disciplines.vams
Reading file:  /eda/cadence/ams/4.10/spectre/c35/processOption/C35B4C3.scs
Reading file:  /eda/cadence/ams/4.10/spectre/c35/soac/cmos53.scs
Reading file:  /eda/cadence/ams/4.10/spectre/c35/soac/res.scs
Reading file:  /eda/cadence/ams/4.10/spectre/c35/soac/cap.scs
Reading file:  /eda/cadence/ams/4.10/spectre/c35/soac/bip.scs
Reading file:  /eda/cadence/ams/4.10/spectre/c35/soac/ind.scs
Reading file:  /eda/cadence/ams/4.10/spectre/c35/soac/esddiode.scs
Time for NDB Parsing: CPU = 261.006 ms, elapsed = 3.81234 s.
Time accumulated: CPU = 659.862 ms, elapsed = 3.81235 s.
Peak resident memory used = 160 Mbytes.

TCP: opening server port it075679.wks.bris.ac.uk:56413
Existing shared object for module modn_ahdl is up to date.
Installed compiled interface for modn_ahdl.
Existing shared object for module modp_ahdl is up to date.
Installed compiled interface for modp_ahdl.
Time for Elaboration: CPU = 37.234 ms, elapsed = 44.5201 ms.
Time accumulated: CPU = 697.443 ms, elapsed = 3.85722 s.
Peak resident memory used = 169 Mbytes.


Notice from spectre during hierarchy flattening.
    The value 'psf' specified for the 'checklimitdest' option will no longer be supported in future releases. Use 'spectre -h' to see other recommended values for the 'checklimitdest' option.


Time for EDB Visiting: CPU = 4.433 ms, elapsed = 7.55906 ms.
Time accumulated: CPU = 702.234 ms, elapsed = 3.86517 s.
Peak resident memory used = 171 Mbytes.

Loading /eda/cadence/2022-23/RHELx86/SPECTRE_21.10.751/tools.lnx86/mdl/lib/64bit/libSpectreEH_sh.so ...

Warning from spectre during initial setup.
    WARNING (SPECTRE-16460): SOAC_cvarm_vspsub:Specified subcircuit master `cvarm' was not found.
    WARNING (SPECTRE-16462): SOAC_cvarm_vspsub:Error in specification of subcircuit master. Assert is ignored.
    WARNING (SPECTRE-16460): SOAC_cvarm_vbs:Specified subcircuit master `cvarm' was not found.
    WARNING (SPECTRE-16462): SOAC_cvarm_vbs:Error in specification of subcircuit master. Assert is ignored.
    WARNING (SPECTRE-16460): SOAC_cvarm_vgb:Specified subcircuit master `cvarm' was not found.
    WARNING (SPECTRE-16462): SOAC_cvarm_vgb:Error in specification of subcircuit master. Assert is ignored.
    WARNING (SPECTRE-16460): SOAC_cvart_vspsub:Specified subcircuit master `cvart' was not found.
    WARNING (SPECTRE-16462): SOAC_cvart_vspsub:Error in specification of subcircuit master. Assert is ignored.
    WARNING (SPECTRE-16460): SOAC_cvart_vbs:Specified subcircuit master `cvart' was not found.
        Further occurrences of this warning will be suppressed.
    WARNING (SPECTRE-16462): SOAC_cvart_vbs:Error in specification of subcircuit master. Assert is ignored.
        Further occurrences of this warning will be suppressed.
Notice from spectre during initial setup.
    Ignorevaref=yes is ignored since all nodes are connected to Verilog-A modules.
Notice from spectre during topology check.
    Only one connection to the following 2 nodes:
        I0.MN0.psub!
        I0.MP0.psub!
Notice from spectre during initial setup.
    Multithreading is disabled due to the size of the design being too small.


Global user options:
         psfversion = 1.4.0
            vabstol = 1e-06
            iabstol = 1e-12
               temp = 27
           homotopy = 5
              limit = delta
         compatible = spice2
               gmin = 1e-12
             rforce = 1
           maxnotes = 5
           maxwarns = 5
             digits = 5
               cols = 80
             pivrel = 0.001
           sensfile = ../psf/sens.output
     checklimitdest = psf
     enable_pre_ver = yes
      ignorezerovar = yes
               save = allpub
             reltol = 0.0001
               tnom = 27
             scalem = 1
              scale = 1

Scoped user options:

Circuit inventory:
              nodes 5
            bsim3v3 2     
          capacitor 1     
          modn_ahdl 1     
          modp_ahdl 1     
            vsource 2     

Analysis and control statement inventory:
               info 7     
         montecarlo 1     
               tran 1     

Output statements:
             .probe 0     
           .measure 0     
               save 1     

Design checks inventory:
          paramtest 2     
             assert 175   


Notice from spectre during initial setup.
    APS enabled.
    72 warnings suppressed.

Time for parsing: CPU = 18.482 ms, elapsed = 2.04045 s.
Time accumulated: CPU = 721.061 ms, elapsed = 5.90598 s.
Peak resident memory used = 176 Mbytes.

~~~~~~~~~~~~~~~~~~~~~~
Pre-Simulation Summary
~~~~~~~~~~~~~~~~~~~~~~
   -   (APS) Multi-threading. The recommended number of threads is 1, consider adding +mt=1 on command line.
~~~~~~~~~~~~~~~~~~~~~~

**************************************************
Monte Carlo Analysis `mc1': iteration = (1 -> 100)
**************************************************
Important parameter values:
    seed = 12345
    sampling = standard
    variations = all
    firstrun = 1
    numruns = 100
    nullmfactorcorrelation = no
    donominal = yes
    method = standard

**** Performing nominal run for `mc1'

Notice from spectre during transient analysis `tran', during Monte Carlo analysis `mc1'.
    No checklimit analysis defined for asserts. A default checklimit analysis 'SpectreChecklimitAnal' has been created with all asserts enabled.


************************************************
Transient Analysis `tran': time = (0 s -> 10 ns)
************************************************

Warning from spectre during check, during IC analysis, during transient analysis `tran', during Monte Carlo analysis `mc1'.
    WARNING (CMI-2943): Parameter checks have been ignored because the valid value for parameter 'trise' could not be found in 'C0'.

DC simulation time: CPU = 745 us, elapsed = 745.058 us.

Opening the PSF file ../psf/nom/tran.tran.tran ...
Important parameter values:
    start = 0 s
    outputstart = 0 s
    stop = 10 ns
    step = 10 ps
    maxstep = 100 ps
    ic = all
    useprevic = no
    skipdc = no
    reltol = 10e-06
    abstol(V) = 1 uV
    abstol(I) = 1 pA
    temp = 27 C
    tnom = 27 C
    tempeffects = all
    errpreset = conservative
    method = gear2only
    lteratio = 10
    relref = alllocal
    cmin = 0 F
    gmin = 1 pS
    rabsshort = 1 mOhm


Notice from spectre during transient analysis `tran', during Monte Carlo analysis `mc1'.
    Multithreading is disabled due to the size of the design being too small.


Output and IC/nodeset summary:
                 save   2       (current)
                 save   5       (voltage)

    tran: time = 255.9 ps    (2.56 %), step = 7.362 ps    (73.6 m%)
    tran: time = 753.9 ps    (7.54 %), step = 100 ps          (1 %)
    tran: time = 1.25 ns     (12.5 %), step = 3.375 ps    (33.7 m%)
    tran: time = 1.78 ns     (17.8 %), step = 46.12 ps     (461 m%)
    tran: time = 2.255 ns    (22.5 %), step = 7.268 ps    (72.7 m%)
    tran: time = 2.836 ns    (28.4 %), step = 100 ps          (1 %)
    tran: time = 3.25 ns     (32.5 %), step = 3.375 ps    (33.8 m%)
    tran: time = 3.78 ns     (37.8 %), step = 46.16 ps     (462 m%)
    tran: time = 4.255 ns    (42.5 %), step = 7.268 ps    (72.7 m%)
    tran: time = 4.836 ns    (48.4 %), step = 100 ps          (1 %)
    tran: time = 5.25 ns     (52.5 %), step = 3.375 ps    (33.8 m%)
    tran: time = 5.78 ns     (57.8 %), step = 46.16 ps     (462 m%)
    tran: time = 6.255 ns    (62.5 %), step = 7.268 ps    (72.7 m%)
    tran: time = 6.836 ns    (68.4 %), step = 100 ps          (1 %)
    tran: time = 7.25 ns     (72.5 %), step = 3.375 ps    (33.8 m%)
    tran: time = 7.78 ns     (77.8 %), step = 46.16 ps     (462 m%)
    tran: time = 8.255 ns    (82.5 %), step = 7.268 ps    (72.7 m%)
    tran: time = 8.836 ns    (88.4 %), step = 100 ps          (1 %)
    tran: time = 9.25 ns     (92.5 %), step = 3.375 ps    (33.8 m%)
    tran: time = 9.78 ns     (97.8 %), step = 46.16 ps     (462 m%)
Number of accepted tran steps =             870

Maximum value achieved for any signal of each quantity: 
V: V(net3) = 3.37 V
I: I(V0:p) = 416.9 uA

~~~~~~~~~~~~~~~~~~~~~~~~~~~~~~~~~
Post-Transient Simulation Summary
~~~~~~~~~~~~~~~~~~~~~~~~~~~~~~~~~
   -   To further speed up simulation, consider
          add ++aps on command line
   -   Non-default settings that could significantly slow down simulation
          errpreset = conservative, default moderate
          reltol = 10e-06, default 100e-06 (conservative)
~~~~~~~~~~~~~~~~~~~~~~~~~~~~~~~~~


During simulation, the CPU load for active processors is :
         0 (13.7 %)      1 (10.9 %)      2 (8.6 %)       3 (27.2 %)
         4 (9.0 %)       5 (19.2 %)      6 (9.0 %)       7 (4.0 %)
         8 (13.4 %)      9 (16.4 %)     10 (10.0 %)     11 (7.4 %)
        Total: 148.7%
Initial condition solution time: CPU = 825 us, elapsed = 833.035 us.
Intrinsic tran analysis time:    CPU = 53.568 ms, elapsed = 58.645 ms.
Total time required for tran analysis `tran': CPU = 117.196 ms, elapsed = 157.205 ms, util. = 74.5%.
Time accumulated: CPU = 852.745 ms, elapsed = 6.08339 s.
Peak resident memory used = 185 Mbytes.

finalTimeOP: writing operating point information to rawfile.

Opening the PSF file ../psf/nom/finalTimeOP.info ...
modelParameter: writing model parameter values to rawfile.

Opening the PSF file ../psf/nom/modelParameter.info ...
element: writing instance parameter values to rawfile.

Opening the PSF file ../psf/nom/element.info ...
outputParameter: writing output parameter values to rawfile.

Opening the PSF file ../psf/nom/outputParameter.info ...
designParamVals: writing netlist parameters to rawfile.

Opening the PSFASCII file ../psf/nom/designParamVals.info ...
primitives: writing primitives to rawfile.

Opening the PSFASCII file ../psf/nom/primitives.info.primitives ...
subckts: writing subcircuits to rawfile.

Opening the PSFASCII file ../psf/nom/subckts.info.subckts ...
Opening process scalar file:  /home/oj23092/VLSI_Design_Lab/Sim/lab2024/tb_invParam/adexl/results/data/MonteCarlo.0/1/lab2024:tb_invParam:1/groupRunDataDir/netlist/../psf/../monteCarlo/processData
Opening process param file:  /home/oj23092/VLSI_Design_Lab/Sim/lab2024/tb_invParam/adexl/results/data/MonteCarlo.0/1/lab2024:tb_invParam:1/groupRunDataDir/netlist/../psf/../monteCarlo/processParam
Opening process full param file:  /home/oj23092/VLSI_Design_Lab/Sim/lab2024/tb_invParam/adexl/results/data/MonteCarlo.0/1/lab2024:tb_invParam:1/groupRunDataDir/netlist/../psf/mc1.process_full.mcparam
Opening process correlation param file:  /home/oj23092/VLSI_Design_Lab/Sim/lab2024/tb_invParam/adexl/results/data/MonteCarlo.0/1/lab2024:tb_invParam:1/groupRunDataDir/netlist/../psf/mc1.process.correlate.mcparam
Opening mismatch full param file:  /home/oj23092/VLSI_Design_Lab/Sim/lab2024/tb_invParam/adexl/results/data/MonteCarlo.0/1/lab2024:tb_invParam:1/groupRunDataDir/netlist/../psf/mc1.mismatch_full.mcparam
Opening mismatch correlation param file:  /home/oj23092/VLSI_Design_Lab/Sim/lab2024/tb_invParam/adexl/results/data/MonteCarlo.0/1/lab2024:tb_invParam:1/groupRunDataDir/netlist/../psf/mc1.mismatch.correlate.mcparam
Opening iteration number and data-directory mapping file:  /home/oj23092/VLSI_Design_Lab/Sim/lab2024/tb_invParam/adexl/results/data/MonteCarlo.0/1/lab2024:tb_invParam:1/groupRunDataDir/netlist/../psf/mc1.mapping

Statistical parameters:
    Defined process parameters: 629
    Defined mismatch parameters (subckt based): 86
    Non-referenced mismatch parameters: 86
    Number of random variables: 629
    Gaussian truncation for process parameters: 4.00 sigma
    Gaussian truncation for mismatch parameters: 4.00 sigma


Opening the PSF file ../psf/mc1_tran.montecarlo ...

Opening the PSF file ../psf/mc1_finalTimeOP.montecarlo ...

Opening the PSF file ../psf/mc1_modelParameter.montecarlo ...

Opening the PSF file ../psf/mc1_element.montecarlo ...

Opening the PSF file ../psf/mc1_outputParameter.montecarlo ...

Opening the PSF file ../psf/mc1_designParamVals.montecarlo ...

Opening the PSF file ../psf/mc1_primitives.montecarlo ...

Opening the PSF file ../psf/mc1_subckts.montecarlo ...

**** Performing monte carlo loop for `mc1'

1              0.00% 

************************************************
Transient Analysis `tran': time = (0 s -> 10 ns)
************************************************

Opening the PSF file ../psf/mc1_separate/001/tran.tran.tran ...

Warning from spectre at iteration = 1 during check, during IC analysis, during transient analysis `tran', during Monte Carlo analysis `mc1'.
    WARNING (CMI-2943): Parameter checks have been ignored because the valid value for parameter 'trise' could not be found in 'C0'.

DC simulation time: CPU = 256 us, elapsed = 255.823 us.
Important parameter values:
    start = 0 s
    outputstart = 0 s
    stop = 10 ns
    step = 10 ps
    maxstep = 100 ps
    ic = all
    useprevic = no
    skipdc = no
    reltol = 10e-06
    abstol(V) = 1 uV
    abstol(I) = 1 pA
    temp = 27 C
    tnom = 27 C
    tempeffects = all
    errpreset = conservative
    method = gear2only
    lteratio = 10
    relref = alllocal
    cmin = 0 F
    gmin = 1 pS
    rabsshort = 1 mOhm


Notice from spectre at iteration = 1 during transient analysis `tran', during Monte Carlo analysis `mc1'.
    Multithreading is disabled due to the size of the design being too small.


Output and IC/nodeset summary:
                 save   2       (current)
                 save   5       (voltage)

    tran: time = 255.9 ps    (2.56 %), step = 7.362 ps    (73.6 m%)
    tran: time = 753.9 ps    (7.54 %), step = 100 ps          (1 %)
    tran: time = 1.25 ns     (12.5 %), step = 3.375 ps    (33.7 m%)
    tran: time = 1.78 ns     (17.8 %), step = 46.12 ps     (461 m%)
    tran: time = 2.255 ns    (22.5 %), step = 7.268 ps    (72.7 m%)
    tran: time = 2.836 ns    (28.4 %), step = 100 ps          (1 %)
    tran: time = 3.25 ns     (32.5 %), step = 3.375 ps    (33.8 m%)
    tran: time = 3.78 ns     (37.8 %), step = 46.16 ps     (462 m%)
    tran: time = 4.255 ns    (42.5 %), step = 7.268 ps    (72.7 m%)
    tran: time = 4.836 ns    (48.4 %), step = 100 ps          (1 %)
    tran: time = 5.25 ns     (52.5 %), step = 3.375 ps    (33.8 m%)
    tran: time = 5.78 ns     (57.8 %), step = 46.16 ps     (462 m%)
    tran: time = 6.255 ns    (62.5 %), step = 7.268 ps    (72.7 m%)
    tran: time = 6.836 ns    (68.4 %), step = 100 ps          (1 %)
    tran: time = 7.25 ns     (72.5 %), step = 3.375 ps    (33.8 m%)
    tran: time = 7.78 ns     (77.8 %), step = 46.16 ps     (462 m%)
    tran: time = 8.255 ns    (82.5 %), step = 7.268 ps    (72.7 m%)
    tran: time = 8.836 ns    (88.4 %), step = 100 ps          (1 %)
    tran: time = 9.25 ns     (92.5 %), step = 3.375 ps    (33.8 m%)
    tran: time = 9.78 ns     (97.8 %), step = 46.16 ps     (462 m%)
Number of accepted tran steps =             870

Maximum value achieved for any signal of each quantity: 
V: V(net3) = 3.37 V
I: I(V0:p) = 416.9 uA

~~~~~~~~~~~~~~~~~~~~~~~~~~~~~~~~~
Post-Transient Simulation Summary
~~~~~~~~~~~~~~~~~~~~~~~~~~~~~~~~~
   -   To further speed up simulation, consider
          add ++aps on command line
   -   Non-default settings that could significantly slow down simulation
          errpreset = conservative, default moderate
          reltol = 10e-06, default 100e-06 (conservative)
~~~~~~~~~~~~~~~~~~~~~~~~~~~~~~~~~


During simulation, the CPU load for active processors is :
         0 (15.2 %)      1 (10.7 %)      2 (8.2 %)       3 (25.8 %)
         4 (8.6 %)       5 (20.0 %)      6 (8.9 %)       7 (3.9 %)
         8 (13.1 %)      9 (15.5 %)     10 (9.6 %)      11 (7.0 %)
        Total: 146.6%
Initial condition solution time: CPU = 299 us, elapsed = 306.129 us.
Intrinsic tran analysis time:    CPU = 52.259 ms, elapsed = 58.888 ms.
Total time required for tran analysis `tran': CPU = 55.615 ms, elapsed = 66.72 ms, util. = 83.4%.
Time accumulated: CPU = 978.949 ms, elapsed = 6.28585 s.
Peak resident memory used = 192 Mbytes.

finalTimeOP: writing operating point information to rawfile.

Opening the PSF file ../psf/mc1_separate/001/finalTimeOP.info ...
modelParameter: writing model parameter values to rawfile.

Opening the PSF file ../psf/mc1_separate/001/modelParameter.info ...
element: writing instance parameter values to rawfile.

Opening the PSF file ../psf/mc1_separate/001/element.info ...
outputParameter: writing output parameter values to rawfile.

Opening the PSF file ../psf/mc1_separate/001/outputParameter.info ...
designParamVals: writing netlist parameters to rawfile.

Opening the PSFASCII file ../psf/mc1_separate/001/designParamVals.info ...
primitives: writing primitives to rawfile.

Opening the PSFASCII file ../psf/mc1_separate/001/primitives.info.primitives ...
subckts: writing subcircuits to rawfile.

Opening the PSFASCII file ../psf/mc1_separate/001/subckts.info.subckts ...
2              1.01% 

************************************************
Transient Analysis `tran': time = (0 s -> 10 ns)
************************************************

Opening the PSF file ../psf/mc1_separate/002/tran.tran.tran ...

Warning from spectre during check, during IC analysis, during transient analysis `tran', during Monte Carlo analysis `mc1'.
    WARNING (CMI-2943): Parameter checks have been ignored because the valid value for parameter 'trise' could not be found in 'C0'.

DC simulation time: CPU = 231 us, elapsed = 231.028 us.
Important parameter values:
    start = 0 s
    outputstart = 0 s
    stop = 10 ns
    step = 10 ps
    maxstep = 100 ps
    ic = all
    useprevic = no
    skipdc = no
    reltol = 10e-06
    abstol(V) = 1 uV
    abstol(I) = 1 pA
    temp = 27 C
    tnom = 27 C
    tempeffects = all
    errpreset = conservative
    method = gear2only
    lteratio = 10
    relref = alllocal
    cmin = 0 F
    gmin = 1 pS
    rabsshort = 1 mOhm


Notice from spectre during transient analysis `tran', during Monte Carlo analysis `mc1'.
    Multithreading is disabled due to the size of the design being too small.


Output and IC/nodeset summary:
                 save   2       (current)
                 save   5       (voltage)

    tran: time = 255.9 ps    (2.56 %), step = 7.362 ps    (73.6 m%)
    tran: time = 753.9 ps    (7.54 %), step = 100 ps          (1 %)
    tran: time = 1.25 ns     (12.5 %), step = 3.375 ps    (33.7 m%)
    tran: time = 1.78 ns     (17.8 %), step = 46.12 ps     (461 m%)
    tran: time = 2.255 ns    (22.5 %), step = 7.268 ps    (72.7 m%)
    tran: time = 2.836 ns    (28.4 %), step = 100 ps          (1 %)
    tran: time = 3.25 ns     (32.5 %), step = 3.375 ps    (33.8 m%)
    tran: time = 3.78 ns     (37.8 %), step = 46.16 ps     (462 m%)
    tran: time = 4.255 ns    (42.5 %), step = 7.268 ps    (72.7 m%)
    tran: time = 4.836 ns    (48.4 %), step = 100 ps          (1 %)
    tran: time = 5.25 ns     (52.5 %), step = 3.375 ps    (33.8 m%)
    tran: time = 5.78 ns     (57.8 %), step = 46.16 ps     (462 m%)
    tran: time = 6.255 ns    (62.5 %), step = 7.268 ps    (72.7 m%)
    tran: time = 6.836 ns    (68.4 %), step = 100 ps          (1 %)
    tran: time = 7.25 ns     (72.5 %), step = 3.375 ps    (33.8 m%)
    tran: time = 7.78 ns     (77.8 %), step = 46.16 ps     (462 m%)
    tran: time = 8.255 ns    (82.5 %), step = 7.268 ps    (72.7 m%)
    tran: time = 8.836 ns    (88.4 %), step = 100 ps          (1 %)
    tran: time = 9.25 ns     (92.5 %), step = 3.375 ps    (33.8 m%)
    tran: time = 9.78 ns     (97.8 %), step = 46.16 ps     (462 m%)
Number of accepted tran steps =             870

Maximum value achieved for any signal of each quantity: 
V: V(net3) = 3.37 V
I: I(V0:p) = 416.9 uA

~~~~~~~~~~~~~~~~~~~~~~~~~~~~~~~~~
Post-Transient Simulation Summary
~~~~~~~~~~~~~~~~~~~~~~~~~~~~~~~~~
   -   To further speed up simulation, consider
          add ++aps on command line
   -   Non-default settings that could significantly slow down simulation
          errpreset = conservative, default moderate
          reltol = 10e-06, default 100e-06 (conservative)
~~~~~~~~~~~~~~~~~~~~~~~~~~~~~~~~~


During simulation, the CPU load for active processors is :
         0 (16.5 %)      1 (10.5 %)      2 (8.0 %)       3 (25.3 %)
         4 (8.4 %)       5 (19.7 %)      6 (8.7 %)       7 (3.9 %)
         8 (12.8 %)      9 (15.2 %)     10 (9.4 %)      11 (6.9 %)
        Total: 145.4%
Initial condition solution time: CPU = 276 us, elapsed = 283.957 us.
Intrinsic tran analysis time:    CPU = 52.063 ms, elapsed = 58.089 ms.
Total time required for tran analysis `tran': CPU = 55.178 ms, elapsed = 64.8801 ms, util. = 85%.
Time accumulated: CPU = 1.06326 s, elapsed = 6.41496 s.
Peak resident memory used = 193 Mbytes.

finalTimeOP: writing operating point information to rawfile.

Opening the PSF file ../psf/mc1_separate/002/finalTimeOP.info ...
modelParameter: writing model parameter values to rawfile.

Opening the PSF file ../psf/mc1_separate/002/modelParameter.info ...
element: writing instance parameter values to rawfile.

Opening the PSF file ../psf/mc1_separate/002/element.info ...
outputParameter: writing output parameter values to rawfile.

Opening the PSF file ../psf/mc1_separate/002/outputParameter.info ...
designParamVals: writing netlist parameters to rawfile.

Opening the PSFASCII file ../psf/mc1_separate/002/designParamVals.info ...
primitives: writing primitives to rawfile.

Opening the PSFASCII file ../psf/mc1_separate/002/primitives.info.primitives ...
subckts: writing subcircuits to rawfile.

Opening the PSFASCII file ../psf/mc1_separate/002/subckts.info.subckts ...
3              2.02% 

************************************************
Transient Analysis `tran': time = (0 s -> 10 ns)
************************************************

Opening the PSF file ../psf/mc1_separate/003/tran.tran.tran ...

Warning from spectre during check, during IC analysis, during transient analysis `tran', during Monte Carlo analysis `mc1'.
    WARNING (CMI-2943): Parameter checks have been ignored because the valid value for parameter 'trise' could not be found in 'C0'.

DC simulation time: CPU = 233 us, elapsed = 249.147 us.
Important parameter values:
    start = 0 s
    outputstart = 0 s
    stop = 10 ns
    step = 10 ps
    maxstep = 100 ps
    ic = all
    useprevic = no
    skipdc = no
    reltol = 10e-06
    abstol(V) = 1 uV
    abstol(I) = 1 pA
    temp = 27 C
    tnom = 27 C
    tempeffects = all
    errpreset = conservative
    method = gear2only
    lteratio = 10
    relref = alllocal
    cmin = 0 F
    gmin = 1 pS
    rabsshort = 1 mOhm


Notice from spectre during transient analysis `tran', during Monte Carlo analysis `mc1'.
    Multithreading is disabled due to the size of the design being too small.


Output and IC/nodeset summary:
                 save   2       (current)
                 save   5       (voltage)

    tran: time = 255.9 ps    (2.56 %), step = 7.362 ps    (73.6 m%)
    tran: time = 753.9 ps    (7.54 %), step = 100 ps          (1 %)
    tran: time = 1.25 ns     (12.5 %), step = 3.375 ps    (33.7 m%)
    tran: time = 1.78 ns     (17.8 %), step = 46.12 ps     (461 m%)
    tran: time = 2.255 ns    (22.5 %), step = 7.268 ps    (72.7 m%)
    tran: time = 2.836 ns    (28.4 %), step = 100 ps          (1 %)
    tran: time = 3.25 ns     (32.5 %), step = 3.375 ps    (33.8 m%)
    tran: time = 3.78 ns     (37.8 %), step = 46.16 ps     (462 m%)
    tran: time = 4.255 ns    (42.5 %), step = 7.268 ps    (72.7 m%)
    tran: time = 4.836 ns    (48.4 %), step = 100 ps          (1 %)
    tran: time = 5.25 ns     (52.5 %), step = 3.375 ps    (33.8 m%)
    tran: time = 5.78 ns     (57.8 %), step = 46.16 ps     (462 m%)
    tran: time = 6.255 ns    (62.5 %), step = 7.268 ps    (72.7 m%)
    tran: time = 6.836 ns    (68.4 %), step = 100 ps          (1 %)
    tran: time = 7.25 ns     (72.5 %), step = 3.375 ps    (33.8 m%)
    tran: time = 7.78 ns     (77.8 %), step = 46.16 ps     (462 m%)
    tran: time = 8.255 ns    (82.5 %), step = 7.268 ps    (72.7 m%)
    tran: time = 8.836 ns    (88.4 %), step = 100 ps          (1 %)
    tran: time = 9.25 ns     (92.5 %), step = 3.375 ps    (33.8 m%)
    tran: time = 9.78 ns     (97.8 %), step = 46.16 ps     (462 m%)
Number of accepted tran steps =             870

Maximum value achieved for any signal of each quantity: 
V: V(net3) = 3.37 V
I: I(V0:p) = 416.9 uA

~~~~~~~~~~~~~~~~~~~~~~~~~~~~~~~~~
Post-Transient Simulation Summary
~~~~~~~~~~~~~~~~~~~~~~~~~~~~~~~~~
   -   To further speed up simulation, consider
          add ++aps on command line
   -   Non-default settings that could significantly slow down simulation
          errpreset = conservative, default moderate
          reltol = 10e-06, default 100e-06 (conservative)
~~~~~~~~~~~~~~~~~~~~~~~~~~~~~~~~~


During simulation, the CPU load for active processors is :
         0 (16.3 %)      1 (11.4 %)      2 (7.9 %)       3 (24.8 %)
         4 (8.2 %)       5 (19.5 %)      6 (8.5 %)       7 (3.8 %)
         8 (12.6 %)      9 (14.9 %)     10 (9.2 %)      11 (6.8 %)
        Total: 143.9%
Initial condition solution time: CPU = 278 us, elapsed = 300.169 us.
Intrinsic tran analysis time:    CPU = 51.601 ms, elapsed = 57.313 ms.
Total time required for tran analysis `tran': CPU = 54.742 ms, elapsed = 65.1371 ms, util. = 84%.
Time accumulated: CPU = 1.14701 s, elapsed = 6.54547 s.
Peak resident memory used = 193 Mbytes.

finalTimeOP: writing operating point information to rawfile.

Opening the PSF file ../psf/mc1_separate/003/finalTimeOP.info ...
modelParameter: writing model parameter values to rawfile.

Opening the PSF file ../psf/mc1_separate/003/modelParameter.info ...
element: writing instance parameter values to rawfile.

Opening the PSF file ../psf/mc1_separate/003/element.info ...
outputParameter: writing output parameter values to rawfile.

Opening the PSF file ../psf/mc1_separate/003/outputParameter.info ...
designParamVals: writing netlist parameters to rawfile.

Opening the PSFASCII file ../psf/mc1_separate/003/designParamVals.info ...
primitives: writing primitives to rawfile.

Opening the PSFASCII file ../psf/mc1_separate/003/primitives.info.primitives ...
subckts: writing subcircuits to rawfile.

Opening the PSFASCII file ../psf/mc1_separate/003/subckts.info.subckts ...
4              3.03% 

************************************************
Transient Analysis `tran': time = (0 s -> 10 ns)
************************************************

Opening the PSF file ../psf/mc1_separate/004/tran.tran.tran ...

Warning from spectre during check, during IC analysis, during transient analysis `tran', during Monte Carlo analysis `mc1'.
    WARNING (CMI-2943): Parameter checks have been ignored because the valid value for parameter 'trise' could not be found in 'C0'.

DC simulation time: CPU = 232 us, elapsed = 277.996 us.
Important parameter values:
    start = 0 s
    outputstart = 0 s
    stop = 10 ns
    step = 10 ps
    maxstep = 100 ps
    ic = all
    useprevic = no
    skipdc = no
    reltol = 10e-06
    abstol(V) = 1 uV
    abstol(I) = 1 pA
    temp = 27 C
    tnom = 27 C
    tempeffects = all
    errpreset = conservative
    method = gear2only
    lteratio = 10
    relref = alllocal
    cmin = 0 F
    gmin = 1 pS
    rabsshort = 1 mOhm


Notice from spectre during transient analysis `tran', during Monte Carlo analysis `mc1'.
    Multithreading is disabled due to the size of the design being too small.


Output and IC/nodeset summary:
                 save   2       (current)
                 save   5       (voltage)

    tran: time = 255.9 ps    (2.56 %), step = 7.362 ps    (73.6 m%)
    tran: time = 753.9 ps    (7.54 %), step = 100 ps          (1 %)
    tran: time = 1.25 ns     (12.5 %), step = 3.375 ps    (33.7 m%)
    tran: time = 1.78 ns     (17.8 %), step = 46.12 ps     (461 m%)
    tran: time = 2.255 ns    (22.5 %), step = 7.268 ps    (72.7 m%)
    tran: time = 2.836 ns    (28.4 %), step = 100 ps          (1 %)
    tran: time = 3.25 ns     (32.5 %), step = 3.375 ps    (33.8 m%)
    tran: time = 3.78 ns     (37.8 %), step = 46.16 ps     (462 m%)
    tran: time = 4.255 ns    (42.5 %), step = 7.268 ps    (72.7 m%)
    tran: time = 4.836 ns    (48.4 %), step = 100 ps          (1 %)
    tran: time = 5.25 ns     (52.5 %), step = 3.375 ps    (33.8 m%)
    tran: time = 5.78 ns     (57.8 %), step = 46.16 ps     (462 m%)
    tran: time = 6.255 ns    (62.5 %), step = 7.268 ps    (72.7 m%)
    tran: time = 6.836 ns    (68.4 %), step = 100 ps          (1 %)
    tran: time = 7.25 ns     (72.5 %), step = 3.375 ps    (33.8 m%)
    tran: time = 7.78 ns     (77.8 %), step = 46.16 ps     (462 m%)
    tran: time = 8.255 ns    (82.5 %), step = 7.268 ps    (72.7 m%)
    tran: time = 8.836 ns    (88.4 %), step = 100 ps          (1 %)
    tran: time = 9.25 ns     (92.5 %), step = 3.375 ps    (33.8 m%)
    tran: time = 9.78 ns     (97.8 %), step = 46.16 ps     (462 m%)
Number of accepted tran steps =             870

Maximum value achieved for any signal of each quantity: 
V: V(net3) = 3.37 V
I: I(V0:p) = 416.9 uA

~~~~~~~~~~~~~~~~~~~~~~~~~~~~~~~~~
Post-Transient Simulation Summary
~~~~~~~~~~~~~~~~~~~~~~~~~~~~~~~~~
   -   To further speed up simulation, consider
          add ++aps on command line
   -   Non-default settings that could significantly slow down simulation
          errpreset = conservative, default moderate
          reltol = 10e-06, default 100e-06 (conservative)
~~~~~~~~~~~~~~~~~~~~~~~~~~~~~~~~~


During simulation, the CPU load for active processors is :
         0 (16.0 %)      1 (12.7 %)      2 (7.7 %)       3 (24.3 %)
         4 (8.1 %)       5 (19.3 %)      6 (8.5 %)       7 (3.7 %)
         8 (12.3 %)      9 (14.6 %)     10 (9.2 %)      11 (6.6 %)
        Total: 143.1%
Initial condition solution time: CPU = 276 us, elapsed = 330.21 us.
Intrinsic tran analysis time:    CPU = 50.952 ms, elapsed = 57.2 ms.
Total time required for tran analysis `tran': CPU = 53.979 ms, elapsed = 64.0938 ms, util. = 84.2%.
Time accumulated: CPU = 1.22895 s, elapsed = 6.67324 s.
Peak resident memory used = 193 Mbytes.

finalTimeOP: writing operating point information to rawfile.

Opening the PSF file ../psf/mc1_separate/004/finalTimeOP.info ...
modelParameter: writing model parameter values to rawfile.

Opening the PSF file ../psf/mc1_separate/004/modelParameter.info ...
element: writing instance parameter values to rawfile.

Opening the PSF file ../psf/mc1_separate/004/element.info ...
outputParameter: writing output parameter values to rawfile.

Opening the PSF file ../psf/mc1_separate/004/outputParameter.info ...
designParamVals: writing netlist parameters to rawfile.

Opening the PSFASCII file ../psf/mc1_separate/004/designParamVals.info ...
primitives: writing primitives to rawfile.

Opening the PSFASCII file ../psf/mc1_separate/004/primitives.info.primitives ...
subckts: writing subcircuits to rawfile.

Opening the PSFASCII file ../psf/mc1_separate/004/subckts.info.subckts ...
    mc1: iteration = 4           (3.03 %), step = 1            (1.01 %)
5              4.04% 

************************************************
Transient Analysis `tran': time = (0 s -> 10 ns)
************************************************

Opening the PSF file ../psf/mc1_separate/005/tran.tran.tran ...

Warning from spectre during check, during IC analysis, during transient analysis `tran', during Monte Carlo analysis `mc1'.
    WARNING (CMI-2943): Parameter checks have been ignored because the valid value for parameter 'trise' could not be found in 'C0'.

DC simulation time: CPU = 306 us, elapsed = 325.918 us.
Important parameter values:
    start = 0 s
    outputstart = 0 s
    stop = 10 ns
    step = 10 ps
    maxstep = 100 ps
    ic = all
    useprevic = no
    skipdc = no
    reltol = 10e-06
    abstol(V) = 1 uV
    abstol(I) = 1 pA
    temp = 27 C
    tnom = 27 C
    tempeffects = all
    errpreset = conservative
    method = gear2only
    lteratio = 10
    relref = alllocal
    cmin = 0 F
    gmin = 1 pS
    rabsshort = 1 mOhm


Notice from spectre during transient analysis `tran', during Monte Carlo analysis `mc1'.
    Multithreading is disabled due to the size of the design being too small.


Output and IC/nodeset summary:
                 save   2       (current)
                 save   5       (voltage)

    tran: time = 255.9 ps    (2.56 %), step = 7.362 ps    (73.6 m%)
    tran: time = 753.9 ps    (7.54 %), step = 100 ps          (1 %)
    tran: time = 1.25 ns     (12.5 %), step = 3.375 ps    (33.7 m%)
    tran: time = 1.78 ns     (17.8 %), step = 46.12 ps     (461 m%)
    tran: time = 2.255 ns    (22.5 %), step = 7.268 ps    (72.7 m%)
    tran: time = 2.836 ns    (28.4 %), step = 100 ps          (1 %)
    tran: time = 3.25 ns     (32.5 %), step = 3.375 ps    (33.8 m%)
    tran: time = 3.78 ns     (37.8 %), step = 46.16 ps     (462 m%)
    tran: time = 4.255 ns    (42.5 %), step = 7.268 ps    (72.7 m%)
    tran: time = 4.836 ns    (48.4 %), step = 100 ps          (1 %)
    tran: time = 5.25 ns     (52.5 %), step = 3.375 ps    (33.8 m%)
    tran: time = 5.78 ns     (57.8 %), step = 46.16 ps     (462 m%)
    tran: time = 6.255 ns    (62.5 %), step = 7.268 ps    (72.7 m%)
    tran: time = 6.836 ns    (68.4 %), step = 100 ps          (1 %)
    tran: time = 7.25 ns     (72.5 %), step = 3.375 ps    (33.8 m%)
    tran: time = 7.78 ns     (77.8 %), step = 46.16 ps     (462 m%)
    tran: time = 8.255 ns    (82.5 %), step = 7.268 ps    (72.7 m%)
    tran: time = 8.836 ns    (88.4 %), step = 100 ps          (1 %)
    tran: time = 9.25 ns     (92.5 %), step = 3.375 ps    (33.8 m%)
    tran: time = 9.78 ns     (97.8 %), step = 46.16 ps     (462 m%)
Number of accepted tran steps =             870

Maximum value achieved for any signal of each quantity: 
V: V(net3) = 3.37 V
I: I(V0:p) = 416.9 uA

~~~~~~~~~~~~~~~~~~~~~~~~~~~~~~~~~
Post-Transient Simulation Summary
~~~~~~~~~~~~~~~~~~~~~~~~~~~~~~~~~
   -   To further speed up simulation, consider
          add ++aps on command line
   -   Non-default settings that could significantly slow down simulation
          errpreset = conservative, default moderate
          reltol = 10e-06, default 100e-06 (conservative)
~~~~~~~~~~~~~~~~~~~~~~~~~~~~~~~~~


During simulation, the CPU load for active processors is :
         0 (16.4 %)      1 (12.7 %)      2 (7.6 %)       3 (23.8 %)
         4 (7.9 %)       5 (19.4 %)      6 (8.4 %)       7 (4.4 %)
         8 (12.2 %)      9 (15.0 %)     10 (9.1 %)      11 (6.8 %)
        Total: 143.6%
Initial condition solution time: CPU = 360 us, elapsed = 390.053 us.
Intrinsic tran analysis time:    CPU = 52.044 ms, elapsed = 58.0249 ms.
Total time required for tran analysis `tran': CPU = 55.948 ms, elapsed = 64.5761 ms, util. = 86.6%.
Time accumulated: CPU = 1.3156 s, elapsed = 6.80312 s.
Peak resident memory used = 193 Mbytes.

finalTimeOP: writing operating point information to rawfile.

Opening the PSF file ../psf/mc1_separate/005/finalTimeOP.info ...
modelParameter: writing model parameter values to rawfile.

Opening the PSF file ../psf/mc1_separate/005/modelParameter.info ...
element: writing instance parameter values to rawfile.

Opening the PSF file ../psf/mc1_separate/005/element.info ...
outputParameter: writing output parameter values to rawfile.

Opening the PSF file ../psf/mc1_separate/005/outputParameter.info ...
designParamVals: writing netlist parameters to rawfile.

Opening the PSFASCII file ../psf/mc1_separate/005/designParamVals.info ...
primitives: writing primitives to rawfile.

Opening the PSFASCII file ../psf/mc1_separate/005/primitives.info.primitives ...
subckts: writing subcircuits to rawfile.

Opening the PSFASCII file ../psf/mc1_separate/005/subckts.info.subckts ...
    mc1: iteration = 5           (4.04 %), step = 1            (1.01 %)
6              5.05% 

************************************************
Transient Analysis `tran': time = (0 s -> 10 ns)
************************************************

Opening the PSF file ../psf/mc1_separate/006/tran.tran.tran ...

Warning from spectre during check, during IC analysis, during transient analysis `tran', during Monte Carlo analysis `mc1'.
    WARNING (CMI-2943): Parameter checks have been ignored because the valid value for parameter 'trise' could not be found in 'C0'.

DC simulation time: CPU = 241 us, elapsed = 241.041 us.
Important parameter values:
    start = 0 s
    outputstart = 0 s
    stop = 10 ns
    step = 10 ps
    maxstep = 100 ps
    ic = all
    useprevic = no
    skipdc = no
    reltol = 10e-06
    abstol(V) = 1 uV
    abstol(I) = 1 pA
    temp = 27 C
    tnom = 27 C
    tempeffects = all
    errpreset = conservative
    method = gear2only
    lteratio = 10
    relref = alllocal
    cmin = 0 F
    gmin = 1 pS
    rabsshort = 1 mOhm


Notice from spectre during transient analysis `tran', during Monte Carlo analysis `mc1'.
    Multithreading is disabled due to the size of the design being too small.


Output and IC/nodeset summary:
                 save   2       (current)
                 save   5       (voltage)

    tran: time = 255.9 ps    (2.56 %), step = 7.362 ps    (73.6 m%)
    tran: time = 753.9 ps    (7.54 %), step = 100 ps          (1 %)
    tran: time = 1.25 ns     (12.5 %), step = 3.375 ps    (33.7 m%)
    tran: time = 1.78 ns     (17.8 %), step = 46.12 ps     (461 m%)
    tran: time = 2.255 ns    (22.5 %), step = 7.268 ps    (72.7 m%)
    tran: time = 2.836 ns    (28.4 %), step = 100 ps          (1 %)
    tran: time = 3.25 ns     (32.5 %), step = 3.375 ps    (33.8 m%)
    tran: time = 3.78 ns     (37.8 %), step = 46.16 ps     (462 m%)
    tran: time = 4.255 ns    (42.5 %), step = 7.268 ps    (72.7 m%)
    tran: time = 4.836 ns    (48.4 %), step = 100 ps          (1 %)
    tran: time = 5.25 ns     (52.5 %), step = 3.375 ps    (33.8 m%)
    tran: time = 5.78 ns     (57.8 %), step = 46.16 ps     (462 m%)
    tran: time = 6.255 ns    (62.5 %), step = 7.268 ps    (72.7 m%)
    tran: time = 6.836 ns    (68.4 %), step = 100 ps          (1 %)
    tran: time = 7.25 ns     (72.5 %), step = 3.375 ps    (33.8 m%)
    tran: time = 7.78 ns     (77.8 %), step = 46.16 ps     (462 m%)
    tran: time = 8.255 ns    (82.5 %), step = 7.268 ps    (72.7 m%)
    tran: time = 8.836 ns    (88.4 %), step = 100 ps          (1 %)
    tran: time = 9.25 ns     (92.5 %), step = 3.375 ps    (33.8 m%)
    tran: time = 9.78 ns     (97.8 %), step = 46.16 ps     (462 m%)
Number of accepted tran steps =             870

Maximum value achieved for any signal of each quantity: 
V: V(net3) = 3.37 V
I: I(V0:p) = 416.9 uA

~~~~~~~~~~~~~~~~~~~~~~~~~~~~~~~~~
Post-Transient Simulation Summary
~~~~~~~~~~~~~~~~~~~~~~~~~~~~~~~~~
   -   To further speed up simulation, consider
          add ++aps on command line
   -   Non-default settings that could significantly slow down simulation
          errpreset = conservative, default moderate
          reltol = 10e-06, default 100e-06 (conservative)
~~~~~~~~~~~~~~~~~~~~~~~~~~~~~~~~~


During simulation, the CPU load for active processors is :
         0 (16.7 %)      1 (12.8 %)      2 (7.4 %)       3 (23.5 %)
         4 (7.8 %)       5 (19.3 %)      6 (8.2 %)       7 (4.8 %)
         8 (12.3 %)      9 (15.1 %)     10 (9.0 %)      11 (7.4 %)
        Total: 144.4%
Initial condition solution time: CPU = 286 us, elapsed = 294.209 us.
Intrinsic tran analysis time:    CPU = 51.286 ms, elapsed = 56.7541 ms.
Total time required for tran analysis `tran': CPU = 54.442 ms, elapsed = 63.189 ms, util. = 86.2%.
Time accumulated: CPU = 1.39804 s, elapsed = 6.92822 s.
Peak resident memory used = 193 Mbytes.

finalTimeOP: writing operating point information to rawfile.

Opening the PSF file ../psf/mc1_separate/006/finalTimeOP.info ...
modelParameter: writing model parameter values to rawfile.

Opening the PSF file ../psf/mc1_separate/006/modelParameter.info ...
element: writing instance parameter values to rawfile.

Opening the PSF file ../psf/mc1_separate/006/element.info ...
outputParameter: writing output parameter values to rawfile.

Opening the PSF file ../psf/mc1_separate/006/outputParameter.info ...
designParamVals: writing netlist parameters to rawfile.

Opening the PSFASCII file ../psf/mc1_separate/006/designParamVals.info ...
primitives: writing primitives to rawfile.

Opening the PSFASCII file ../psf/mc1_separate/006/primitives.info.primitives ...
subckts: writing subcircuits to rawfile.

Opening the PSFASCII file ../psf/mc1_separate/006/subckts.info.subckts ...
    mc1: iteration = 6           (5.05 %), step = 1            (1.01 %)
7              6.06% 

************************************************
Transient Analysis `tran': time = (0 s -> 10 ns)
************************************************

Opening the PSF file ../psf/mc1_separate/007/tran.tran.tran ...

Warning from spectre during check, during IC analysis, during transient analysis `tran', during Monte Carlo analysis `mc1'.
    WARNING (CMI-2943): Parameter checks have been ignored because the valid value for parameter 'trise' could not be found in 'C0'.

DC simulation time: CPU = 305 us, elapsed = 319.958 us.
Important parameter values:
    start = 0 s
    outputstart = 0 s
    stop = 10 ns
    step = 10 ps
    maxstep = 100 ps
    ic = all
    useprevic = no
    skipdc = no
    reltol = 10e-06
    abstol(V) = 1 uV
    abstol(I) = 1 pA
    temp = 27 C
    tnom = 27 C
    tempeffects = all
    errpreset = conservative
    method = gear2only
    lteratio = 10
    relref = alllocal
    cmin = 0 F
    gmin = 1 pS
    rabsshort = 1 mOhm


Notice from spectre during transient analysis `tran', during Monte Carlo analysis `mc1'.
    Multithreading is disabled due to the size of the design being too small.


Output and IC/nodeset summary:
                 save   2       (current)
                 save   5       (voltage)

    tran: time = 255.9 ps    (2.56 %), step = 7.362 ps    (73.6 m%)
    tran: time = 753.9 ps    (7.54 %), step = 100 ps          (1 %)
    tran: time = 1.25 ns     (12.5 %), step = 3.375 ps    (33.7 m%)
    tran: time = 1.78 ns     (17.8 %), step = 46.12 ps     (461 m%)
    tran: time = 2.255 ns    (22.5 %), step = 7.268 ps    (72.7 m%)
    tran: time = 2.836 ns    (28.4 %), step = 100 ps          (1 %)
    tran: time = 3.25 ns     (32.5 %), step = 3.375 ps    (33.8 m%)
    tran: time = 3.78 ns     (37.8 %), step = 46.16 ps     (462 m%)
    tran: time = 4.255 ns    (42.5 %), step = 7.268 ps    (72.7 m%)
    tran: time = 4.836 ns    (48.4 %), step = 100 ps          (1 %)
    tran: time = 5.25 ns     (52.5 %), step = 3.375 ps    (33.8 m%)
    tran: time = 5.78 ns     (57.8 %), step = 46.16 ps     (462 m%)
    tran: time = 6.255 ns    (62.5 %), step = 7.268 ps    (72.7 m%)
    tran: time = 6.836 ns    (68.4 %), step = 100 ps          (1 %)
    tran: time = 7.25 ns     (72.5 %), step = 3.375 ps    (33.8 m%)
    tran: time = 7.78 ns     (77.8 %), step = 46.16 ps     (462 m%)
    tran: time = 8.255 ns    (82.5 %), step = 7.268 ps    (72.7 m%)
    tran: time = 8.836 ns    (88.4 %), step = 100 ps          (1 %)
    tran: time = 9.25 ns     (92.5 %), step = 3.375 ps    (33.8 m%)
    tran: time = 9.78 ns     (97.8 %), step = 46.16 ps     (462 m%)
Number of accepted tran steps =             870

Maximum value achieved for any signal of each quantity: 
V: V(net3) = 3.37 V
I: I(V0:p) = 416.9 uA

~~~~~~~~~~~~~~~~~~~~~~~~~~~~~~~~~
Post-Transient Simulation Summary
~~~~~~~~~~~~~~~~~~~~~~~~~~~~~~~~~
   -   To further speed up simulation, consider
          add ++aps on command line
   -   Non-default settings that could significantly slow down simulation
          errpreset = conservative, default moderate
          reltol = 10e-06, default 100e-06 (conservative)
~~~~~~~~~~~~~~~~~~~~~~~~~~~~~~~~~


During simulation, the CPU load for active processors is :
         0 (16.6 %)      1 (12.6 %)      2 (7.3 %)       3 (24.2 %)
         4 (7.6 %)       5 (19.6 %)      6 (9.5 %)       7 (5.1 %)
         8 (12.2 %)      9 (14.9 %)     10 (9.1 %)      11 (8.9 %)
        Total: 147.6%
Initial condition solution time: CPU = 352 us, elapsed = 373.125 us.
Intrinsic tran analysis time:    CPU = 51.228 ms, elapsed = 56.6618 ms.
Total time required for tran analysis `tran': CPU = 54.48 ms, elapsed = 62.8591 ms, util. = 86.7%.
Time accumulated: CPU = 1.48223 s, elapsed = 7.05333 s.
Peak resident memory used = 193 Mbytes.

finalTimeOP: writing operating point information to rawfile.

Opening the PSF file ../psf/mc1_separate/007/finalTimeOP.info ...
modelParameter: writing model parameter values to rawfile.

Opening the PSF file ../psf/mc1_separate/007/modelParameter.info ...
element: writing instance parameter values to rawfile.

Opening the PSF file ../psf/mc1_separate/007/element.info ...
outputParameter: writing output parameter values to rawfile.

Opening the PSF file ../psf/mc1_separate/007/outputParameter.info ...
designParamVals: writing netlist parameters to rawfile.

Opening the PSFASCII file ../psf/mc1_separate/007/designParamVals.info ...
primitives: writing primitives to rawfile.

Opening the PSFASCII file ../psf/mc1_separate/007/primitives.info.primitives ...
subckts: writing subcircuits to rawfile.

Opening the PSFASCII file ../psf/mc1_separate/007/subckts.info.subckts ...
    mc1: iteration = 7           (6.06 %), step = 1            (1.01 %)
8              7.07% 

************************************************
Transient Analysis `tran': time = (0 s -> 10 ns)
************************************************

Opening the PSF file ../psf/mc1_separate/008/tran.tran.tran ...

Warning from spectre during check, during IC analysis, during transient analysis `tran', during Monte Carlo analysis `mc1'.
    WARNING (CMI-2943): Parameter checks have been ignored because the valid value for parameter 'trise' could not be found in 'C0'.

DC simulation time: CPU = 243 us, elapsed = 260.115 us.
Important parameter values:
    start = 0 s
    outputstart = 0 s
    stop = 10 ns
    step = 10 ps
    maxstep = 100 ps
    ic = all
    useprevic = no
    skipdc = no
    reltol = 10e-06
    abstol(V) = 1 uV
    abstol(I) = 1 pA
    temp = 27 C
    tnom = 27 C
    tempeffects = all
    errpreset = conservative
    method = gear2only
    lteratio = 10
    relref = alllocal
    cmin = 0 F
    gmin = 1 pS
    rabsshort = 1 mOhm


Notice from spectre during transient analysis `tran', during Monte Carlo analysis `mc1'.
    Multithreading is disabled due to the size of the design being too small.


Output and IC/nodeset summary:
                 save   2       (current)
                 save   5       (voltage)

    tran: time = 255.9 ps    (2.56 %), step = 7.362 ps    (73.6 m%)
    tran: time = 753.9 ps    (7.54 %), step = 100 ps          (1 %)
    tran: time = 1.25 ns     (12.5 %), step = 3.375 ps    (33.7 m%)
    tran: time = 1.78 ns     (17.8 %), step = 46.12 ps     (461 m%)
    tran: time = 2.255 ns    (22.5 %), step = 7.268 ps    (72.7 m%)
    tran: time = 2.836 ns    (28.4 %), step = 100 ps          (1 %)
    tran: time = 3.25 ns     (32.5 %), step = 3.375 ps    (33.8 m%)
    tran: time = 3.78 ns     (37.8 %), step = 46.16 ps     (462 m%)
    tran: time = 4.255 ns    (42.5 %), step = 7.268 ps    (72.7 m%)
    tran: time = 4.836 ns    (48.4 %), step = 100 ps          (1 %)
    tran: time = 5.25 ns     (52.5 %), step = 3.375 ps    (33.8 m%)
    tran: time = 5.78 ns     (57.8 %), step = 46.16 ps     (462 m%)
    tran: time = 6.255 ns    (62.5 %), step = 7.268 ps    (72.7 m%)
    tran: time = 6.836 ns    (68.4 %), step = 100 ps          (1 %)
    tran: time = 7.25 ns     (72.5 %), step = 3.375 ps    (33.8 m%)
    tran: time = 7.78 ns     (77.8 %), step = 46.16 ps     (462 m%)
    tran: time = 8.255 ns    (82.5 %), step = 7.268 ps    (72.7 m%)
    tran: time = 8.836 ns    (88.4 %), step = 100 ps          (1 %)
    tran: time = 9.25 ns     (92.5 %), step = 3.375 ps    (33.8 m%)
    tran: time = 9.78 ns     (97.8 %), step = 46.16 ps     (462 m%)
Number of accepted tran steps =             870

Maximum value achieved for any signal of each quantity: 
V: V(net3) = 3.37 V
I: I(V0:p) = 416.9 uA

~~~~~~~~~~~~~~~~~~~~~~~~~~~~~~~~~
Post-Transient Simulation Summary
~~~~~~~~~~~~~~~~~~~~~~~~~~~~~~~~~
   -   To further speed up simulation, consider
          add ++aps on command line
   -   Non-default settings that could significantly slow down simulation
          errpreset = conservative, default moderate
          reltol = 10e-06, default 100e-06 (conservative)
~~~~~~~~~~~~~~~~~~~~~~~~~~~~~~~~~


During simulation, the CPU load for active processors is :
         0 (17.1 %)      1 (12.6 %)      2 (7.3 %)       3 (24.6 %)
         4 (7.9 %)       5 (20.1 %)      6 (9.5 %)       7 (5.0 %)
         8 (12.4 %)      9 (15.2 %)     10 (9.0 %)      11 (9.1 %)
        Total: 149.9%
Initial condition solution time: CPU = 291 us, elapsed = 315.905 us.
Intrinsic tran analysis time:    CPU = 53.365 ms, elapsed = 59.509 ms.
Total time required for tran analysis `tran': CPU = 56.707 ms, elapsed = 66.5109 ms, util. = 85.3%.
Time accumulated: CPU = 1.56727 s, elapsed = 7.18358 s.
Peak resident memory used = 193 Mbytes.

finalTimeOP: writing operating point information to rawfile.

Opening the PSF file ../psf/mc1_separate/008/finalTimeOP.info ...
modelParameter: writing model parameter values to rawfile.

Opening the PSF file ../psf/mc1_separate/008/modelParameter.info ...
element: writing instance parameter values to rawfile.

Opening the PSF file ../psf/mc1_separate/008/element.info ...
outputParameter: writing output parameter values to rawfile.

Opening the PSF file ../psf/mc1_separate/008/outputParameter.info ...
designParamVals: writing netlist parameters to rawfile.

Opening the PSFASCII file ../psf/mc1_separate/008/designParamVals.info ...
primitives: writing primitives to rawfile.

Opening the PSFASCII file ../psf/mc1_separate/008/primitives.info.primitives ...
subckts: writing subcircuits to rawfile.

Opening the PSFASCII file ../psf/mc1_separate/008/subckts.info.subckts ...
    mc1: iteration = 8           (7.07 %), step = 1            (1.01 %)
9              8.08% 

************************************************
Transient Analysis `tran': time = (0 s -> 10 ns)
************************************************

Opening the PSF file ../psf/mc1_separate/009/tran.tran.tran ...

Warning from spectre during check, during IC analysis, during transient analysis `tran', during Monte Carlo analysis `mc1'.
    WARNING (CMI-2943): Parameter checks have been ignored because the valid value for parameter 'trise' could not be found in 'C0'.

DC simulation time: CPU = 248 us, elapsed = 266.075 us.
Important parameter values:
    start = 0 s
    outputstart = 0 s
    stop = 10 ns
    step = 10 ps
    maxstep = 100 ps
    ic = all
    useprevic = no
    skipdc = no
    reltol = 10e-06
    abstol(V) = 1 uV
    abstol(I) = 1 pA
    temp = 27 C
    tnom = 27 C
    tempeffects = all
    errpreset = conservative
    method = gear2only
    lteratio = 10
    relref = alllocal
    cmin = 0 F
    gmin = 1 pS
    rabsshort = 1 mOhm


Notice from spectre during transient analysis `tran', during Monte Carlo analysis `mc1'.
    Multithreading is disabled due to the size of the design being too small.


Output and IC/nodeset summary:
                 save   2       (current)
                 save   5       (voltage)

    tran: time = 255.9 ps    (2.56 %), step = 7.362 ps    (73.6 m%)
    tran: time = 753.9 ps    (7.54 %), step = 100 ps          (1 %)
    tran: time = 1.25 ns     (12.5 %), step = 3.375 ps    (33.7 m%)
    tran: time = 1.78 ns     (17.8 %), step = 46.12 ps     (461 m%)
    tran: time = 2.255 ns    (22.5 %), step = 7.268 ps    (72.7 m%)
    tran: time = 2.836 ns    (28.4 %), step = 100 ps          (1 %)
    tran: time = 3.25 ns     (32.5 %), step = 3.375 ps    (33.8 m%)
    tran: time = 3.78 ns     (37.8 %), step = 46.16 ps     (462 m%)
    tran: time = 4.255 ns    (42.5 %), step = 7.268 ps    (72.7 m%)
    tran: time = 4.836 ns    (48.4 %), step = 100 ps          (1 %)
    tran: time = 5.25 ns     (52.5 %), step = 3.375 ps    (33.8 m%)
    tran: time = 5.78 ns     (57.8 %), step = 46.16 ps     (462 m%)
    tran: time = 6.255 ns    (62.5 %), step = 7.268 ps    (72.7 m%)
    tran: time = 6.836 ns    (68.4 %), step = 100 ps          (1 %)
    tran: time = 7.25 ns     (72.5 %), step = 3.375 ps    (33.8 m%)
    tran: time = 7.78 ns     (77.8 %), step = 46.16 ps     (462 m%)
    tran: time = 8.255 ns    (82.5 %), step = 7.268 ps    (72.7 m%)
    tran: time = 8.836 ns    (88.4 %), step = 100 ps          (1 %)
    tran: time = 9.25 ns     (92.5 %), step = 3.375 ps    (33.8 m%)
    tran: time = 9.78 ns     (97.8 %), step = 46.16 ps     (462 m%)
Number of accepted tran steps =             870

Maximum value achieved for any signal of each quantity: 
V: V(net3) = 3.37 V
I: I(V0:p) = 416.9 uA

~~~~~~~~~~~~~~~~~~~~~~~~~~~~~~~~~
Post-Transient Simulation Summary
~~~~~~~~~~~~~~~~~~~~~~~~~~~~~~~~~
   -   To further speed up simulation, consider
          add ++aps on command line
   -   Non-default settings that could significantly slow down simulation
          errpreset = conservative, default moderate
          reltol = 10e-06, default 100e-06 (conservative)
~~~~~~~~~~~~~~~~~~~~~~~~~~~~~~~~~


During simulation, the CPU load for active processors is :
         0 (17.9 %)      1 (12.4 %)      2 (7.3 %)       3 (24.4 %)
         4 (7.8 %)       5 (20.0 %)      6 (9.5 %)       7 (5.2 %)
         8 (12.4 %)      9 (16.2 %)     10 (8.8 %)      11 (9.0 %)
        Total: 150.7%
Initial condition solution time: CPU = 294 us, elapsed = 317.812 us.
Intrinsic tran analysis time:    CPU = 51.878 ms, elapsed = 56.7849 ms.
Total time required for tran analysis `tran': CPU = 54.833 ms, elapsed = 62.3388 ms, util. = 88%.
Time accumulated: CPU = 1.65072 s, elapsed = 7.30638 s.
Peak resident memory used = 193 Mbytes.

finalTimeOP: writing operating point information to rawfile.

Opening the PSF file ../psf/mc1_separate/009/finalTimeOP.info ...
modelParameter: writing model parameter values to rawfile.

Opening the PSF file ../psf/mc1_separate/009/modelParameter.info ...
element: writing instance parameter values to rawfile.

Opening the PSF file ../psf/mc1_separate/009/element.info ...
outputParameter: writing output parameter values to rawfile.

Opening the PSF file ../psf/mc1_separate/009/outputParameter.info ...
designParamVals: writing netlist parameters to rawfile.

Opening the PSFASCII file ../psf/mc1_separate/009/designParamVals.info ...
primitives: writing primitives to rawfile.

Opening the PSFASCII file ../psf/mc1_separate/009/primitives.info.primitives ...
subckts: writing subcircuits to rawfile.

Opening the PSFASCII file ../psf/mc1_separate/009/subckts.info.subckts ...
    mc1: iteration = 9           (8.08 %), step = 1            (1.01 %)
10             9.09% 

************************************************
Transient Analysis `tran': time = (0 s -> 10 ns)
************************************************

Opening the PSF file ../psf/mc1_separate/010/tran.tran.tran ...

Warning from spectre during check, during IC analysis, during transient analysis `tran', during Monte Carlo analysis `mc1'.
    WARNING (CMI-2943): Parameter checks have been ignored because the valid value for parameter 'trise' could not be found in 'C0'.

DC simulation time: CPU = 232 us, elapsed = 231.981 us.
Important parameter values:
    start = 0 s
    outputstart = 0 s
    stop = 10 ns
    step = 10 ps
    maxstep = 100 ps
    ic = all
    useprevic = no
    skipdc = no
    reltol = 10e-06
    abstol(V) = 1 uV
    abstol(I) = 1 pA
    temp = 27 C
    tnom = 27 C
    tempeffects = all
    errpreset = conservative
    method = gear2only
    lteratio = 10
    relref = alllocal
    cmin = 0 F
    gmin = 1 pS
    rabsshort = 1 mOhm


Notice from spectre during transient analysis `tran', during Monte Carlo analysis `mc1'.
    Multithreading is disabled due to the size of the design being too small.


Output and IC/nodeset summary:
                 save   2       (current)
                 save   5       (voltage)

    tran: time = 255.9 ps    (2.56 %), step = 7.362 ps    (73.6 m%)
    tran: time = 753.9 ps    (7.54 %), step = 100 ps          (1 %)
    tran: time = 1.25 ns     (12.5 %), step = 3.375 ps    (33.7 m%)
    tran: time = 1.78 ns     (17.8 %), step = 46.12 ps     (461 m%)
    tran: time = 2.255 ns    (22.5 %), step = 7.268 ps    (72.7 m%)
    tran: time = 2.836 ns    (28.4 %), step = 100 ps          (1 %)
    tran: time = 3.25 ns     (32.5 %), step = 3.375 ps    (33.8 m%)
    tran: time = 3.78 ns     (37.8 %), step = 46.16 ps     (462 m%)
    tran: time = 4.255 ns    (42.5 %), step = 7.268 ps    (72.7 m%)
    tran: time = 4.836 ns    (48.4 %), step = 100 ps          (1 %)
    tran: time = 5.25 ns     (52.5 %), step = 3.375 ps    (33.8 m%)
    tran: time = 5.78 ns     (57.8 %), step = 46.16 ps     (462 m%)
    tran: time = 6.255 ns    (62.5 %), step = 7.268 ps    (72.7 m%)
    tran: time = 6.836 ns    (68.4 %), step = 100 ps          (1 %)
    tran: time = 7.25 ns     (72.5 %), step = 3.375 ps    (33.8 m%)
    tran: time = 7.78 ns     (77.8 %), step = 46.16 ps     (462 m%)
    tran: time = 8.255 ns    (82.5 %), step = 7.268 ps    (72.7 m%)
    tran: time = 8.836 ns    (88.4 %), step = 100 ps          (1 %)
    tran: time = 9.25 ns     (92.5 %), step = 3.375 ps    (33.8 m%)
    tran: time = 9.78 ns     (97.8 %), step = 46.16 ps     (462 m%)
Number of accepted tran steps =             870

Maximum value achieved for any signal of each quantity: 
V: V(net3) = 3.37 V
I: I(V0:p) = 416.9 uA

~~~~~~~~~~~~~~~~~~~~~~~~~~~~~~~~~
Post-Transient Simulation Summary
~~~~~~~~~~~~~~~~~~~~~~~~~~~~~~~~~
   -   To further speed up simulation, consider
          add ++aps on command line
   -   Non-default settings that could significantly slow down simulation
          errpreset = conservative, default moderate
          reltol = 10e-06, default 100e-06 (conservative)
~~~~~~~~~~~~~~~~~~~~~~~~~~~~~~~~~


During simulation, the CPU load for active processors is :
         0 (18.1 %)      1 (12.2 %)      2 (7.2 %)       3 (24.0 %)
         4 (7.8 %)       5 (19.8 %)      6 (9.7 %)       7 (5.8 %)
         8 (12.2 %)      9 (17.1 %)     10 (8.7 %)      11 (8.8 %)
        Total: 151.3%
Initial condition solution time: CPU = 276 us, elapsed = 284.91 us.
Intrinsic tran analysis time:    CPU = 49.525 ms, elapsed = 54.549 ms.
Total time required for tran analysis `tran': CPU = 52.433 ms, elapsed = 60.2021 ms, util. = 87.1%.
Time accumulated: CPU = 1.73132 s, elapsed = 7.42711 s.
Peak resident memory used = 193 Mbytes.

finalTimeOP: writing operating point information to rawfile.

Opening the PSF file ../psf/mc1_separate/010/finalTimeOP.info ...
modelParameter: writing model parameter values to rawfile.

Opening the PSF file ../psf/mc1_separate/010/modelParameter.info ...
element: writing instance parameter values to rawfile.

Opening the PSF file ../psf/mc1_separate/010/element.info ...
outputParameter: writing output parameter values to rawfile.

Opening the PSF file ../psf/mc1_separate/010/outputParameter.info ...
designParamVals: writing netlist parameters to rawfile.

Opening the PSFASCII file ../psf/mc1_separate/010/designParamVals.info ...
primitives: writing primitives to rawfile.

Opening the PSFASCII file ../psf/mc1_separate/010/primitives.info.primitives ...
subckts: writing subcircuits to rawfile.

Opening the PSFASCII file ../psf/mc1_separate/010/subckts.info.subckts ...
    mc1: iteration = 10          (9.09 %), step = 1            (1.01 %)
11            10.10% 

************************************************
Transient Analysis `tran': time = (0 s -> 10 ns)
************************************************

Opening the PSF file ../psf/mc1_separate/011/tran.tran.tran ...

Warning from spectre during check, during IC analysis, during transient analysis `tran', during Monte Carlo analysis `mc1'.
    WARNING (CMI-2943): Parameter checks have been ignored because the valid value for parameter 'trise' could not be found in 'C0'.

DC simulation time: CPU = 233 us, elapsed = 235.081 us.
Important parameter values:
    start = 0 s
    outputstart = 0 s
    stop = 10 ns
    step = 10 ps
    maxstep = 100 ps
    ic = all
    useprevic = no
    skipdc = no
    reltol = 10e-06
    abstol(V) = 1 uV
    abstol(I) = 1 pA
    temp = 27 C
    tnom = 27 C
    tempeffects = all
    errpreset = conservative
    method = gear2only
    lteratio = 10
    relref = alllocal
    cmin = 0 F
    gmin = 1 pS
    rabsshort = 1 mOhm


Notice from spectre during transient analysis `tran', during Monte Carlo analysis `mc1'.
    Multithreading is disabled due to the size of the design being too small.


Output and IC/nodeset summary:
                 save   2       (current)
                 save   5       (voltage)

    tran: time = 255.9 ps    (2.56 %), step = 7.362 ps    (73.6 m%)
    tran: time = 753.9 ps    (7.54 %), step = 100 ps          (1 %)
    tran: time = 1.25 ns     (12.5 %), step = 3.375 ps    (33.7 m%)
    tran: time = 1.78 ns     (17.8 %), step = 46.12 ps     (461 m%)
    tran: time = 2.255 ns    (22.5 %), step = 7.268 ps    (72.7 m%)
    tran: time = 2.836 ns    (28.4 %), step = 100 ps          (1 %)
    tran: time = 3.25 ns     (32.5 %), step = 3.375 ps    (33.8 m%)
    tran: time = 3.78 ns     (37.8 %), step = 46.16 ps     (462 m%)
    tran: time = 4.255 ns    (42.5 %), step = 7.268 ps    (72.7 m%)
    tran: time = 4.836 ns    (48.4 %), step = 100 ps          (1 %)
    tran: time = 5.25 ns     (52.5 %), step = 3.375 ps    (33.8 m%)
    tran: time = 5.78 ns     (57.8 %), step = 46.16 ps     (462 m%)
    tran: time = 6.255 ns    (62.5 %), step = 7.268 ps    (72.7 m%)
    tran: time = 6.836 ns    (68.4 %), step = 100 ps          (1 %)
    tran: time = 7.25 ns     (72.5 %), step = 3.375 ps    (33.8 m%)
    tran: time = 7.78 ns     (77.8 %), step = 46.16 ps     (462 m%)
    tran: time = 8.255 ns    (82.5 %), step = 7.268 ps    (72.7 m%)
    tran: time = 8.836 ns    (88.4 %), step = 100 ps          (1 %)
    tran: time = 9.25 ns     (92.5 %), step = 3.375 ps    (33.8 m%)
    tran: time = 9.78 ns     (97.8 %), step = 46.16 ps     (462 m%)
Number of accepted tran steps =             870

Maximum value achieved for any signal of each quantity: 
V: V(net3) = 3.37 V
I: I(V0:p) = 416.9 uA

~~~~~~~~~~~~~~~~~~~~~~~~~~~~~~~~~
Post-Transient Simulation Summary
~~~~~~~~~~~~~~~~~~~~~~~~~~~~~~~~~
   -   To further speed up simulation, consider
          add ++aps on command line
   -   Non-default settings that could significantly slow down simulation
          errpreset = conservative, default moderate
          reltol = 10e-06, default 100e-06 (conservative)
~~~~~~~~~~~~~~~~~~~~~~~~~~~~~~~~~


During simulation, the CPU load for active processors is :
         0 (17.7 %)      1 (12.0 %)      2 (7.3 %)       3 (23.6 %)
         4 (7.6 %)       5 (19.7 %)      6 (9.6 %)       7 (7.4 %)
         8 (12.0 %)      9 (17.1 %)     10 (9.5 %)      11 (8.8 %)
        Total: 152.3%
Initial condition solution time: CPU = 279 us, elapsed = 287.056 us.
Intrinsic tran analysis time:    CPU = 51.287 ms, elapsed = 56.6051 ms.
Total time required for tran analysis `tran': CPU = 54.238 ms, elapsed = 62.3789 ms, util. = 86.9%.
Time accumulated: CPU = 1.81319 s, elapsed = 7.55088 s.
Peak resident memory used = 193 Mbytes.

finalTimeOP: writing operating point information to rawfile.

Opening the PSF file ../psf/mc1_separate/011/finalTimeOP.info ...
modelParameter: writing model parameter values to rawfile.

Opening the PSF file ../psf/mc1_separate/011/modelParameter.info ...
element: writing instance parameter values to rawfile.

Opening the PSF file ../psf/mc1_separate/011/element.info ...
outputParameter: writing output parameter values to rawfile.

Opening the PSF file ../psf/mc1_separate/011/outputParameter.info ...
designParamVals: writing netlist parameters to rawfile.

Opening the PSFASCII file ../psf/mc1_separate/011/designParamVals.info ...
primitives: writing primitives to rawfile.

Opening the PSFASCII file ../psf/mc1_separate/011/primitives.info.primitives ...
subckts: writing subcircuits to rawfile.

Opening the PSFASCII file ../psf/mc1_separate/011/subckts.info.subckts ...
    mc1: iteration = 11          (10.1 %), step = 1            (1.01 %)
12            11.11% 

************************************************
Transient Analysis `tran': time = (0 s -> 10 ns)
************************************************

Opening the PSF file ../psf/mc1_separate/012/tran.tran.tran ...

Warning from spectre during check, during IC analysis, during transient analysis `tran', during Monte Carlo analysis `mc1'.
    WARNING (CMI-2943): Parameter checks have been ignored because the valid value for parameter 'trise' could not be found in 'C0'.

DC simulation time: CPU = 303 us, elapsed = 316.143 us.
Important parameter values:
    start = 0 s
    outputstart = 0 s
    stop = 10 ns
    step = 10 ps
    maxstep = 100 ps
    ic = all
    useprevic = no
    skipdc = no
    reltol = 10e-06
    abstol(V) = 1 uV
    abstol(I) = 1 pA
    temp = 27 C
    tnom = 27 C
    tempeffects = all
    errpreset = conservative
    method = gear2only
    lteratio = 10
    relref = alllocal
    cmin = 0 F
    gmin = 1 pS
    rabsshort = 1 mOhm


Notice from spectre during transient analysis `tran', during Monte Carlo analysis `mc1'.
    Multithreading is disabled due to the size of the design being too small.


Output and IC/nodeset summary:
                 save   2       (current)
                 save   5       (voltage)

    tran: time = 255.9 ps    (2.56 %), step = 7.362 ps    (73.6 m%)
    tran: time = 753.9 ps    (7.54 %), step = 100 ps          (1 %)
    tran: time = 1.25 ns     (12.5 %), step = 3.375 ps    (33.7 m%)
    tran: time = 1.78 ns     (17.8 %), step = 46.12 ps     (461 m%)
    tran: time = 2.255 ns    (22.5 %), step = 7.268 ps    (72.7 m%)
    tran: time = 2.836 ns    (28.4 %), step = 100 ps          (1 %)
    tran: time = 3.25 ns     (32.5 %), step = 3.375 ps    (33.8 m%)
    tran: time = 3.78 ns     (37.8 %), step = 46.16 ps     (462 m%)
    tran: time = 4.255 ns    (42.5 %), step = 7.268 ps    (72.7 m%)
    tran: time = 4.836 ns    (48.4 %), step = 100 ps          (1 %)
    tran: time = 5.25 ns     (52.5 %), step = 3.375 ps    (33.8 m%)
    tran: time = 5.78 ns     (57.8 %), step = 46.16 ps     (462 m%)
    tran: time = 6.255 ns    (62.5 %), step = 7.268 ps    (72.7 m%)
    tran: time = 6.836 ns    (68.4 %), step = 100 ps          (1 %)
    tran: time = 7.25 ns     (72.5 %), step = 3.375 ps    (33.8 m%)
    tran: time = 7.78 ns     (77.8 %), step = 46.16 ps     (462 m%)
    tran: time = 8.255 ns    (82.5 %), step = 7.268 ps    (72.7 m%)
    tran: time = 8.836 ns    (88.4 %), step = 100 ps          (1 %)
    tran: time = 9.25 ns     (92.5 %), step = 3.375 ps    (33.8 m%)
    tran: time = 9.78 ns     (97.8 %), step = 46.16 ps     (462 m%)
Number of accepted tran steps =             870

Maximum value achieved for any signal of each quantity: 
V: V(net3) = 3.37 V
I: I(V0:p) = 416.9 uA

~~~~~~~~~~~~~~~~~~~~~~~~~~~~~~~~~
Post-Transient Simulation Summary
~~~~~~~~~~~~~~~~~~~~~~~~~~~~~~~~~
   -   To further speed up simulation, consider
          add ++aps on command line
   -   Non-default settings that could significantly slow down simulation
          errpreset = conservative, default moderate
          reltol = 10e-06, default 100e-06 (conservative)
~~~~~~~~~~~~~~~~~~~~~~~~~~~~~~~~~


During simulation, the CPU load for active processors is :
         0 (18.4 %)      1 (11.9 %)      2 (7.6 %)       3 (23.9 %)
         4 (7.6 %)       5 (19.7 %)      6 (9.8 %)       7 (8.7 %)
         8 (12.0 %)      9 (16.8 %)     10 (9.6 %)      11 (8.7 %)
        Total: 154.7%
Initial condition solution time: CPU = 350 us, elapsed = 369.787 us.
Intrinsic tran analysis time:    CPU = 53.688 ms, elapsed = 58.5442 ms.
Total time required for tran analysis `tran': CPU = 56.865 ms, elapsed = 64.3711 ms, util. = 88.3%.
Time accumulated: CPU = 1.89982 s, elapsed = 7.67769 s.
Peak resident memory used = 193 Mbytes.

finalTimeOP: writing operating point information to rawfile.

Opening the PSF file ../psf/mc1_separate/012/finalTimeOP.info ...
modelParameter: writing model parameter values to rawfile.

Opening the PSF file ../psf/mc1_separate/012/modelParameter.info ...
element: writing instance parameter values to rawfile.

Opening the PSF file ../psf/mc1_separate/012/element.info ...
outputParameter: writing output parameter values to rawfile.

Opening the PSF file ../psf/mc1_separate/012/outputParameter.info ...
designParamVals: writing netlist parameters to rawfile.

Opening the PSFASCII file ../psf/mc1_separate/012/designParamVals.info ...
primitives: writing primitives to rawfile.

Opening the PSFASCII file ../psf/mc1_separate/012/primitives.info.primitives ...
subckts: writing subcircuits to rawfile.

Opening the PSFASCII file ../psf/mc1_separate/012/subckts.info.subckts ...
    mc1: iteration = 12          (11.1 %), step = 1            (1.01 %)
13            12.12% 

************************************************
Transient Analysis `tran': time = (0 s -> 10 ns)
************************************************

Opening the PSF file ../psf/mc1_separate/013/tran.tran.tran ...

Warning from spectre during check, during IC analysis, during transient analysis `tran', during Monte Carlo analysis `mc1'.
    WARNING (CMI-2943): Parameter checks have been ignored because the valid value for parameter 'trise' could not be found in 'C0'.

DC simulation time: CPU = 275 us, elapsed = 275.85 us.
Important parameter values:
    start = 0 s
    outputstart = 0 s
    stop = 10 ns
    step = 10 ps
    maxstep = 100 ps
    ic = all
    useprevic = no
    skipdc = no
    reltol = 10e-06
    abstol(V) = 1 uV
    abstol(I) = 1 pA
    temp = 27 C
    tnom = 27 C
    tempeffects = all
    errpreset = conservative
    method = gear2only
    lteratio = 10
    relref = alllocal
    cmin = 0 F
    gmin = 1 pS
    rabsshort = 1 mOhm


Notice from spectre during transient analysis `tran', during Monte Carlo analysis `mc1'.
    Multithreading is disabled due to the size of the design being too small.


Output and IC/nodeset summary:
                 save   2       (current)
                 save   5       (voltage)

    tran: time = 255.9 ps    (2.56 %), step = 7.362 ps    (73.6 m%)
    tran: time = 753.9 ps    (7.54 %), step = 100 ps          (1 %)
    tran: time = 1.25 ns     (12.5 %), step = 3.375 ps    (33.7 m%)
    tran: time = 1.78 ns     (17.8 %), step = 46.12 ps     (461 m%)
    tran: time = 2.255 ns    (22.5 %), step = 7.268 ps    (72.7 m%)
    tran: time = 2.836 ns    (28.4 %), step = 100 ps          (1 %)
    tran: time = 3.25 ns     (32.5 %), step = 3.375 ps    (33.8 m%)
    tran: time = 3.78 ns     (37.8 %), step = 46.16 ps     (462 m%)
    tran: time = 4.255 ns    (42.5 %), step = 7.268 ps    (72.7 m%)
    tran: time = 4.836 ns    (48.4 %), step = 100 ps          (1 %)
    tran: time = 5.25 ns     (52.5 %), step = 3.375 ps    (33.8 m%)
    tran: time = 5.78 ns     (57.8 %), step = 46.16 ps     (462 m%)
    tran: time = 6.255 ns    (62.5 %), step = 7.268 ps    (72.7 m%)
    tran: time = 6.836 ns    (68.4 %), step = 100 ps          (1 %)
    tran: time = 7.25 ns     (72.5 %), step = 3.375 ps    (33.8 m%)
    tran: time = 7.78 ns     (77.8 %), step = 46.16 ps     (462 m%)
    tran: time = 8.255 ns    (82.5 %), step = 7.268 ps    (72.7 m%)
    tran: time = 8.836 ns    (88.4 %), step = 100 ps          (1 %)
    tran: time = 9.25 ns     (92.5 %), step = 3.375 ps    (33.8 m%)
    tran: time = 9.78 ns     (97.8 %), step = 46.16 ps     (462 m%)
Number of accepted tran steps =             870

Maximum value achieved for any signal of each quantity: 
V: V(net3) = 3.37 V
I: I(V0:p) = 416.9 uA

~~~~~~~~~~~~~~~~~~~~~~~~~~~~~~~~~
Post-Transient Simulation Summary
~~~~~~~~~~~~~~~~~~~~~~~~~~~~~~~~~
   -   To further speed up simulation, consider
          add ++aps on command line
   -   Non-default settings that could significantly slow down simulation
          errpreset = conservative, default moderate
          reltol = 10e-06, default 100e-06 (conservative)
~~~~~~~~~~~~~~~~~~~~~~~~~~~~~~~~~


During simulation, the CPU load for active processors is :
         0 (19.3 %)      1 (12.1 %)      2 (8.4 %)       3 (24.3 %)
         4 (7.5 %)       5 (19.6 %)      6 (9.7 %)       7 (8.6 %)
         8 (12.3 %)      9 (16.7 %)     10 (9.4 %)      11 (8.9 %)
        Total: 156.8%
Initial condition solution time: CPU = 322 us, elapsed = 330.925 us.
Intrinsic tran analysis time:    CPU = 52.178 ms, elapsed = 57.4059 ms.
Total time required for tran analysis `tran': CPU = 55.23 ms, elapsed = 63.292 ms, util. = 87.3%.
Time accumulated: CPU = 1.98452 s, elapsed = 7.80257 s.
Peak resident memory used = 193 Mbytes.

finalTimeOP: writing operating point information to rawfile.

Opening the PSF file ../psf/mc1_separate/013/finalTimeOP.info ...
modelParameter: writing model parameter values to rawfile.

Opening the PSF file ../psf/mc1_separate/013/modelParameter.info ...
element: writing instance parameter values to rawfile.

Opening the PSF file ../psf/mc1_separate/013/element.info ...
outputParameter: writing output parameter values to rawfile.

Opening the PSF file ../psf/mc1_separate/013/outputParameter.info ...
designParamVals: writing netlist parameters to rawfile.

Opening the PSFASCII file ../psf/mc1_separate/013/designParamVals.info ...
primitives: writing primitives to rawfile.

Opening the PSFASCII file ../psf/mc1_separate/013/primitives.info.primitives ...
subckts: writing subcircuits to rawfile.

Opening the PSFASCII file ../psf/mc1_separate/013/subckts.info.subckts ...
    mc1: iteration = 13          (12.1 %), step = 1            (1.01 %)
14            13.13% 

************************************************
Transient Analysis `tran': time = (0 s -> 10 ns)
************************************************

Opening the PSF file ../psf/mc1_separate/014/tran.tran.tran ...

Warning from spectre during check, during IC analysis, during transient analysis `tran', during Monte Carlo analysis `mc1'.
    WARNING (CMI-2943): Parameter checks have been ignored because the valid value for parameter 'trise' could not be found in 'C0'.

DC simulation time: CPU = 233 us, elapsed = 234.842 us.
Important parameter values:
    start = 0 s
    outputstart = 0 s
    stop = 10 ns
    step = 10 ps
    maxstep = 100 ps
    ic = all
    useprevic = no
    skipdc = no
    reltol = 10e-06
    abstol(V) = 1 uV
    abstol(I) = 1 pA
    temp = 27 C
    tnom = 27 C
    tempeffects = all
    errpreset = conservative
    method = gear2only
    lteratio = 10
    relref = alllocal
    cmin = 0 F
    gmin = 1 pS
    rabsshort = 1 mOhm


Notice from spectre during transient analysis `tran', during Monte Carlo analysis `mc1'.
    Multithreading is disabled due to the size of the design being too small.


Output and IC/nodeset summary:
                 save   2       (current)
                 save   5       (voltage)

    tran: time = 255.9 ps    (2.56 %), step = 7.362 ps    (73.6 m%)
    tran: time = 753.9 ps    (7.54 %), step = 100 ps          (1 %)
    tran: time = 1.25 ns     (12.5 %), step = 3.375 ps    (33.7 m%)
    tran: time = 1.78 ns     (17.8 %), step = 46.12 ps     (461 m%)
    tran: time = 2.255 ns    (22.5 %), step = 7.268 ps    (72.7 m%)
    tran: time = 2.836 ns    (28.4 %), step = 100 ps          (1 %)
    tran: time = 3.25 ns     (32.5 %), step = 3.375 ps    (33.8 m%)
    tran: time = 3.78 ns     (37.8 %), step = 46.16 ps     (462 m%)
    tran: time = 4.255 ns    (42.5 %), step = 7.268 ps    (72.7 m%)
[...]
    mc1: iteration = 96            (96 %), step = 1            (1.01 %)
97            96.97% 

************************************************
Transient Analysis `tran': time = (0 s -> 10 ns)
************************************************

Opening the PSF file ../psf/mc1_separate/097/tran.tran.tran ...

Warning from spectre during check, during IC analysis, during transient analysis `tran', during Monte Carlo analysis `mc1'.
    WARNING (CMI-2943): Parameter checks have been ignored because the valid value for parameter 'trise' could not be found in 'C0'.

DC simulation time: CPU = 238 us, elapsed = 239.849 us.
Important parameter values:
    start = 0 s
    outputstart = 0 s
    stop = 10 ns
    step = 10 ps
    maxstep = 100 ps
    ic = all
    useprevic = no
    skipdc = no
    reltol = 10e-06
    abstol(V) = 1 uV
    abstol(I) = 1 pA
    temp = 27 C
    tnom = 27 C
    tempeffects = all
    errpreset = conservative
    method = gear2only
    lteratio = 10
    relref = alllocal
    cmin = 0 F
    gmin = 1 pS
    rabsshort = 1 mOhm


Notice from spectre during transient analysis `tran', during Monte Carlo analysis `mc1'.
    Multithreading is disabled due to the size of the design being too small.


Output and IC/nodeset summary:
                 save   2       (current)
                 save   5       (voltage)

    tran: time = 255.9 ps    (2.56 %), step = 7.362 ps    (73.6 m%)
    tran: time = 753.9 ps    (7.54 %), step = 100 ps          (1 %)
    tran: time = 1.25 ns     (12.5 %), step = 3.375 ps    (33.7 m%)
    tran: time = 1.78 ns     (17.8 %), step = 46.12 ps     (461 m%)
    tran: time = 2.255 ns    (22.5 %), step = 7.268 ps    (72.7 m%)
    tran: time = 2.836 ns    (28.4 %), step = 100 ps          (1 %)
    tran: time = 3.25 ns     (32.5 %), step = 3.375 ps    (33.8 m%)
    tran: time = 3.78 ns     (37.8 %), step = 46.16 ps     (462 m%)
    tran: time = 4.255 ns    (42.5 %), step = 7.268 ps    (72.7 m%)
    tran: time = 4.836 ns    (48.4 %), step = 100 ps          (1 %)
    tran: time = 5.25 ns     (52.5 %), step = 3.375 ps    (33.8 m%)
    tran: time = 5.78 ns     (57.8 %), step = 46.16 ps     (462 m%)
    tran: time = 6.255 ns    (62.5 %), step = 7.268 ps    (72.7 m%)
    tran: time = 6.836 ns    (68.4 %), step = 100 ps          (1 %)
    tran: time = 7.25 ns     (72.5 %), step = 3.375 ps    (33.8 m%)
    tran: time = 7.78 ns     (77.8 %), step = 46.16 ps     (462 m%)
    tran: time = 8.255 ns    (82.5 %), step = 7.268 ps    (72.7 m%)
    tran: time = 8.836 ns    (88.4 %), step = 100 ps          (1 %)
    tran: time = 9.25 ns     (92.5 %), step = 3.375 ps    (33.8 m%)
    tran: time = 9.78 ns     (97.8 %), step = 46.16 ps     (462 m%)
Number of accepted tran steps =             870

Maximum value achieved for any signal of each quantity: 
V: V(net3) = 3.37 V
I: I(V0:p) = 416.9 uA

~~~~~~~~~~~~~~~~~~~~~~~~~~~~~~~~~
Post-Transient Simulation Summary
~~~~~~~~~~~~~~~~~~~~~~~~~~~~~~~~~
   -   To further speed up simulation, consider
          add ++aps on command line
   -   Non-default settings that could significantly slow down simulation
          errpreset = conservative, default moderate
          reltol = 10e-06, default 100e-06 (conservative)
~~~~~~~~~~~~~~~~~~~~~~~~~~~~~~~~~


During simulation, the CPU load for active processors is :
         0 (23.3 %)      1 (18.2 %)      2 (20.4 %)      3 (25.2 %)
         4 (15.0 %)      5 (18.4 %)      6 (14.9 %)      7 (9.8 %)
         8 (16.9 %)      9 (17.0 %)     10 (16.7 %)     11 (13.0 %)
        Total: 208.7%
Initial condition solution time: CPU = 284 us, elapsed = 292.063 us.
Intrinsic tran analysis time:    CPU = 50.674 ms, elapsed = 55.9721 ms.
Total time required for tran analysis `tran': CPU = 53.66 ms, elapsed = 61.4691 ms, util. = 87.3%.
Time accumulated: CPU = 9.16509 s, elapsed = 18.4625 s.
Peak resident memory used = 193 Mbytes.

finalTimeOP: writing operating point information to rawfile.

Opening the PSF file ../psf/mc1_separate/097/finalTimeOP.info ...
modelParameter: writing model parameter values to rawfile.

Opening the PSF file ../psf/mc1_separate/097/modelParameter.info ...
element: writing instance parameter values to rawfile.

Opening the PSF file ../psf/mc1_separate/097/element.info ...
outputParameter: writing output parameter values to rawfile.

Opening the PSF file ../psf/mc1_separate/097/outputParameter.info ...
designParamVals: writing netlist parameters to rawfile.

Opening the PSFASCII file ../psf/mc1_separate/097/designParamVals.info ...
primitives: writing primitives to rawfile.

Opening the PSFASCII file ../psf/mc1_separate/097/primitives.info.primitives ...
subckts: writing subcircuits to rawfile.

Opening the PSFASCII file ../psf/mc1_separate/097/subckts.info.subckts ...
    mc1: iteration = 97            (97 %), step = 1            (1.01 %)
98            97.98% 

************************************************
Transient Analysis `tran': time = (0 s -> 10 ns)
************************************************

Opening the PSF file ../psf/mc1_separate/098/tran.tran.tran ...

Warning from spectre during check, during IC analysis, during transient analysis `tran', during Monte Carlo analysis `mc1'.
    WARNING (CMI-2943): Parameter checks have been ignored because the valid value for parameter 'trise' could not be found in 'C0'.

DC simulation time: CPU = 231 us, elapsed = 231.028 us.
Important parameter values:
    start = 0 s
    outputstart = 0 s
    stop = 10 ns
    step = 10 ps
    maxstep = 100 ps
    ic = all
    useprevic = no
    skipdc = no
    reltol = 10e-06
    abstol(V) = 1 uV
    abstol(I) = 1 pA
    temp = 27 C
    tnom = 27 C
    tempeffects = all
    errpreset = conservative
    method = gear2only
    lteratio = 10
    relref = alllocal
    cmin = 0 F
    gmin = 1 pS
    rabsshort = 1 mOhm


Notice from spectre during transient analysis `tran', during Monte Carlo analysis `mc1'.
    Multithreading is disabled due to the size of the design being too small.


Output and IC/nodeset summary:
                 save   2       (current)
                 save   5       (voltage)

    tran: time = 255.9 ps    (2.56 %), step = 7.362 ps    (73.6 m%)
    tran: time = 753.9 ps    (7.54 %), step = 100 ps          (1 %)
    tran: time = 1.25 ns     (12.5 %), step = 3.375 ps    (33.7 m%)
    tran: time = 1.78 ns     (17.8 %), step = 46.12 ps     (461 m%)
    tran: time = 2.255 ns    (22.5 %), step = 7.268 ps    (72.7 m%)
    tran: time = 2.836 ns    (28.4 %), step = 100 ps          (1 %)
    tran: time = 3.25 ns     (32.5 %), step = 3.375 ps    (33.8 m%)
    tran: time = 3.78 ns     (37.8 %), step = 46.16 ps     (462 m%)
    tran: time = 4.255 ns    (42.5 %), step = 7.268 ps    (72.7 m%)
    tran: time = 4.836 ns    (48.4 %), step = 100 ps          (1 %)
    tran: time = 5.25 ns     (52.5 %), step = 3.375 ps    (33.8 m%)
    tran: time = 5.78 ns     (57.8 %), step = 46.16 ps     (462 m%)
    tran: time = 6.255 ns    (62.5 %), step = 7.268 ps    (72.7 m%)
    tran: time = 6.836 ns    (68.4 %), step = 100 ps          (1 %)
    tran: time = 7.25 ns     (72.5 %), step = 3.375 ps    (33.8 m%)
    tran: time = 7.78 ns     (77.8 %), step = 46.16 ps     (462 m%)
    tran: time = 8.255 ns    (82.5 %), step = 7.268 ps    (72.7 m%)
    tran: time = 8.836 ns    (88.4 %), step = 100 ps          (1 %)
    tran: time = 9.25 ns     (92.5 %), step = 3.375 ps    (33.8 m%)
    tran: time = 9.78 ns     (97.8 %), step = 46.16 ps     (462 m%)
Number of accepted tran steps =             870

Maximum value achieved for any signal of each quantity: 
V: V(net3) = 3.37 V
I: I(V0:p) = 416.9 uA

~~~~~~~~~~~~~~~~~~~~~~~~~~~~~~~~~
Post-Transient Simulation Summary
~~~~~~~~~~~~~~~~~~~~~~~~~~~~~~~~~
   -   To further speed up simulation, consider
          add ++aps on command line
   -   Non-default settings that could significantly slow down simulation
          errpreset = conservative, default moderate
          reltol = 10e-06, default 100e-06 (conservative)
~~~~~~~~~~~~~~~~~~~~~~~~~~~~~~~~~


During simulation, the CPU load for active processors is :
         0 (23.2 %)      1 (18.2 %)      2 (20.3 %)      3 (25.4 %)
         4 (15.3 %)      5 (18.4 %)      6 (14.8 %)      7 (9.8 %)
         8 (16.9 %)      9 (16.9 %)     10 (16.8 %)     11 (13.0 %)
        Total: 208.8%
Initial condition solution time: CPU = 275 us, elapsed = 283.003 us.
Intrinsic tran analysis time:    CPU = 50.135 ms, elapsed = 55.0709 ms.
Total time required for tran analysis `tran': CPU = 53.058 ms, elapsed = 60.6198 ms, util. = 87.5%.
Time accumulated: CPU = 9.24638 s, elapsed = 18.5842 s.
Peak resident memory used = 193 Mbytes.

finalTimeOP: writing operating point information to rawfile.

Opening the PSF file ../psf/mc1_separate/098/finalTimeOP.info ...
modelParameter: writing model parameter values to rawfile.

Opening the PSF file ../psf/mc1_separate/098/modelParameter.info ...
element: writing instance parameter values to rawfile.

Opening the PSF file ../psf/mc1_separate/098/element.info ...
outputParameter: writing output parameter values to rawfile.

Opening the PSF file ../psf/mc1_separate/098/outputParameter.info ...
designParamVals: writing netlist parameters to rawfile.

Opening the PSFASCII file ../psf/mc1_separate/098/designParamVals.info ...
primitives: writing primitives to rawfile.

Opening the PSFASCII file ../psf/mc1_separate/098/primitives.info.primitives ...
subckts: writing subcircuits to rawfile.

Opening the PSFASCII file ../psf/mc1_separate/098/subckts.info.subckts ...
    mc1: iteration = 98            (98 %), step = 1            (1.01 %)
99            98.99% 

************************************************
Transient Analysis `tran': time = (0 s -> 10 ns)
************************************************

Opening the PSF file ../psf/mc1_separate/099/tran.tran.tran ...

Warning from spectre during check, during IC analysis, during transient analysis `tran', during Monte Carlo analysis `mc1'.
    WARNING (CMI-2943): Parameter checks have been ignored because the valid value for parameter 'trise' could not be found in 'C0'.

DC simulation time: CPU = 233 us, elapsed = 235.081 us.
Important parameter values:
    start = 0 s
    outputstart = 0 s
    stop = 10 ns
    step = 10 ps
    maxstep = 100 ps
    ic = all
    useprevic = no
    skipdc = no
    reltol = 10e-06
    abstol(V) = 1 uV
    abstol(I) = 1 pA
    temp = 27 C
    tnom = 27 C
    tempeffects = all
    errpreset = conservative
    method = gear2only
    lteratio = 10
    relref = alllocal
    cmin = 0 F
    gmin = 1 pS
    rabsshort = 1 mOhm


Notice from spectre during transient analysis `tran', during Monte Carlo analysis `mc1'.
    Multithreading is disabled due to the size of the design being too small.


Output and IC/nodeset summary:
                 save   2       (current)
                 save   5       (voltage)

    tran: time = 255.9 ps    (2.56 %), step = 7.362 ps    (73.6 m%)
    tran: time = 753.9 ps    (7.54 %), step = 100 ps          (1 %)
    tran: time = 1.25 ns     (12.5 %), step = 3.375 ps    (33.7 m%)
    tran: time = 1.78 ns     (17.8 %), step = 46.12 ps     (461 m%)
    tran: time = 2.255 ns    (22.5 %), step = 7.268 ps    (72.7 m%)
    tran: time = 2.836 ns    (28.4 %), step = 100 ps          (1 %)
    tran: time = 3.25 ns     (32.5 %), step = 3.375 ps    (33.8 m%)
    tran: time = 3.78 ns     (37.8 %), step = 46.16 ps     (462 m%)
    tran: time = 4.255 ns    (42.5 %), step = 7.268 ps    (72.7 m%)
    tran: time = 4.836 ns    (48.4 %), step = 100 ps          (1 %)
    tran: time = 5.25 ns     (52.5 %), step = 3.375 ps    (33.8 m%)
    tran: time = 5.78 ns     (57.8 %), step = 46.16 ps     (462 m%)
    tran: time = 6.255 ns    (62.5 %), step = 7.268 ps    (72.7 m%)
    tran: time = 6.836 ns    (68.4 %), step = 100 ps          (1 %)
    tran: time = 7.25 ns     (72.5 %), step = 3.375 ps    (33.8 m%)
    tran: time = 7.78 ns     (77.8 %), step = 46.16 ps     (462 m%)
    tran: time = 8.255 ns    (82.5 %), step = 7.268 ps    (72.7 m%)
    tran: time = 8.836 ns    (88.4 %), step = 100 ps          (1 %)
    tran: time = 9.25 ns     (92.5 %), step = 3.375 ps    (33.8 m%)
    tran: time = 9.78 ns     (97.8 %), step = 46.16 ps     (462 m%)
Number of accepted tran steps =             870

Maximum value achieved for any signal of each quantity: 
V: V(net3) = 3.37 V
I: I(V0:p) = 416.9 uA

~~~~~~~~~~~~~~~~~~~~~~~~~~~~~~~~~
Post-Transient Simulation Summary
~~~~~~~~~~~~~~~~~~~~~~~~~~~~~~~~~
   -   To further speed up simulation, consider
          add ++aps on command line
   -   Non-default settings that could significantly slow down simulation
          errpreset = conservative, default moderate
          reltol = 10e-06, default 100e-06 (conservative)
~~~~~~~~~~~~~~~~~~~~~~~~~~~~~~~~~


During simulation, the CPU load for active processors is :
         0 (23.1 %)      1 (18.1 %)      2 (20.1 %)      3 (25.7 %)
         4 (15.6 %)      5 (18.4 %)      6 (14.8 %)      7 (9.7 %)
         8 (16.9 %)      9 (16.8 %)     10 (16.6 %)     11 (12.9 %)
        Total: 208.6%
Initial condition solution time: CPU = 280 us, elapsed = 286.818 us.
Intrinsic tran analysis time:    CPU = 49.794 ms, elapsed = 54.986 ms.
Total time required for tran analysis `tran': CPU = 53.124 ms, elapsed = 60.9839 ms, util. = 87.1%.
Time accumulated: CPU = 9.32783 s, elapsed = 18.7057 s.
Peak resident memory used = 193 Mbytes.

finalTimeOP: writing operating point information to rawfile.

Opening the PSF file ../psf/mc1_separate/099/finalTimeOP.info ...
modelParameter: writing model parameter values to rawfile.

Opening the PSF file ../psf/mc1_separate/099/modelParameter.info ...
element: writing instance parameter values to rawfile.

Opening the PSF file ../psf/mc1_separate/099/element.info ...
outputParameter: writing output parameter values to rawfile.

Opening the PSF file ../psf/mc1_separate/099/outputParameter.info ...
designParamVals: writing netlist parameters to rawfile.

Opening the PSFASCII file ../psf/mc1_separate/099/designParamVals.info ...
primitives: writing primitives to rawfile.

Opening the PSFASCII file ../psf/mc1_separate/099/primitives.info.primitives ...
subckts: writing subcircuits to rawfile.

Opening the PSFASCII file ../psf/mc1_separate/099/subckts.info.subckts ...
    mc1: iteration = 99            (99 %), step = 1            (1.01 %)
100          100.00% 

************************************************
Transient Analysis `tran': time = (0 s -> 10 ns)
************************************************

Opening the PSF file ../psf/mc1_separate/100/tran.tran.tran ...

Warning from spectre during check, during IC analysis, during transient analysis `tran', during Monte Carlo analysis `mc1'.
    WARNING (CMI-2943): Parameter checks have been ignored because the valid value for parameter 'trise' could not be found in 'C0'.

DC simulation time: CPU = 335 us, elapsed = 336.17 us.
Important parameter values:
    start = 0 s
    outputstart = 0 s
    stop = 10 ns
    step = 10 ps
    maxstep = 100 ps
    ic = all
    useprevic = no
    skipdc = no
    reltol = 10e-06
    abstol(V) = 1 uV
    abstol(I) = 1 pA
    temp = 27 C
    tnom = 27 C
    tempeffects = all
    errpreset = conservative
    method = gear2only
    lteratio = 10
    relref = alllocal
    cmin = 0 F
    gmin = 1 pS
    rabsshort = 1 mOhm


Notice from spectre during transient analysis `tran', during Monte Carlo analysis `mc1'.
    Multithreading is disabled due to the size of the design being too small.


Output and IC/nodeset summary:
                 save   2       (current)
                 save   5       (voltage)

    tran: time = 255.9 ps    (2.56 %), step = 7.362 ps    (73.6 m%)
    tran: time = 753.9 ps    (7.54 %), step = 100 ps          (1 %)
    tran: time = 1.25 ns     (12.5 %), step = 3.375 ps    (33.7 m%)
    tran: time = 1.78 ns     (17.8 %), step = 46.12 ps     (461 m%)
    tran: time = 2.255 ns    (22.5 %), step = 7.268 ps    (72.7 m%)
    tran: time = 2.836 ns    (28.4 %), step = 100 ps          (1 %)
    tran: time = 3.25 ns     (32.5 %), step = 3.375 ps    (33.8 m%)
    tran: time = 3.78 ns     (37.8 %), step = 46.16 ps     (462 m%)
    tran: time = 4.255 ns    (42.5 %), step = 7.268 ps    (72.7 m%)
    tran: time = 4.836 ns    (48.4 %), step = 100 ps          (1 %)
    tran: time = 5.25 ns     (52.5 %), step = 3.375 ps    (33.8 m%)
    tran: time = 5.78 ns     (57.8 %), step = 46.16 ps     (462 m%)
    tran: time = 6.255 ns    (62.5 %), step = 7.268 ps    (72.7 m%)
    tran: time = 6.836 ns    (68.4 %), step = 100 ps          (1 %)
    tran: time = 7.25 ns     (72.5 %), step = 3.375 ps    (33.8 m%)
    tran: time = 7.78 ns     (77.8 %), step = 46.16 ps     (462 m%)
    tran: time = 8.255 ns    (82.5 %), step = 7.268 ps    (72.7 m%)
    tran: time = 8.836 ns    (88.4 %), step = 100 ps          (1 %)
    tran: time = 9.25 ns     (92.5 %), step = 3.375 ps    (33.8 m%)
    tran: time = 9.78 ns     (97.8 %), step = 46.16 ps     (462 m%)
Number of accepted tran steps =             870

Maximum value achieved for any signal of each quantity: 
V: V(net3) = 3.37 V
I: I(V0:p) = 416.9 uA

~~~~~~~~~~~~~~~~~~~~~~~~~~~~~~~~~
Post-Transient Simulation Summary
~~~~~~~~~~~~~~~~~~~~~~~~~~~~~~~~~
   -   To further speed up simulation, consider
          add ++aps on command line
   -   Non-default settings that could significantly slow down simulation
          errpreset = conservative, default moderate
          reltol = 10e-06, default 100e-06 (conservative)
~~~~~~~~~~~~~~~~~~~~~~~~~~~~~~~~~


During simulation, the CPU load for active processors is :
         0 (22.9 %)      1 (18.0 %)      2 (20.4 %)      3 (25.9 %)
         4 (15.6 %)      5 (18.4 %)      6 (14.8 %)      7 (9.7 %)
         8 (16.9 %)      9 (16.8 %)     10 (16.6 %)     11 (13.1 %)
        Total: 209.0%
Initial condition solution time: CPU = 416 us, elapsed = 434.875 us.
Intrinsic tran analysis time:    CPU = 51.158 ms, elapsed = 56.247 ms.
Total time required for tran analysis `tran': CPU = 55.231 ms, elapsed = 63.782 ms, util. = 86.6%.
Time accumulated: CPU = 9.41145 s, elapsed = 18.8324 s.
Peak resident memory used = 193 Mbytes.

finalTimeOP: writing operating point information to rawfile.

Opening the PSF file ../psf/mc1_separate/100/finalTimeOP.info ...
modelParameter: writing model parameter values to rawfile.

Opening the PSF file ../psf/mc1_separate/100/modelParameter.info ...
element: writing instance parameter values to rawfile.

Opening the PSF file ../psf/mc1_separate/100/element.info ...
outputParameter: writing output parameter values to rawfile.

Opening the PSF file ../psf/mc1_separate/100/outputParameter.info ...
designParamVals: writing netlist parameters to rawfile.

Opening the PSFASCII file ../psf/mc1_separate/100/designParamVals.info ...
primitives: writing primitives to rawfile.

Opening the PSFASCII file ../psf/mc1_separate/100/primitives.info.primitives ...
subckts: writing subcircuits to rawfile.

Opening the PSFASCII file ../psf/mc1_separate/100/subckts.info.subckts ...
    mc1: iteration = 100          (100 %), step = 1            (1.01 %)
Total time required for montecarlo analysis `mc1': CPU = 8.71362 s, elapsed = 12.9837 s, util. = 67.1%.
Time accumulated: CPU = 9.43589 s, elapsed = 18.8909 s.
Peak resident memory used = 193 Mbytes.

Licensing Information:
Lic Summary:
[15:53:19.299131] Cdslmd servers:5280@ls-dc2-fen-p1.services.bris.ac.uk:5280@ls-dc2-fen-p0.services.bris.ac.uk
[15:53:19.299251] Feature usage summary:
[15:53:19.299251] Virtuoso_Multi_mode_Simulation


Aggregate audit (3:53:19 PM, Mon Mar 11, 2024):
Time used: CPU = 9.44 s, elapsed = 18.9 s, util. = 50%.
Time spent in licensing: elapsed = 3.25 s, percentage of total = 17.2%.
Peak memory used = 194 Mbytes.
Simulation started at: 3:53:00 PM, Mon Mar 11, 2024, ended at: 3:53:19 PM, Mon Mar 11, 2024, with elapsed time (wall clock): 18.9 s.
spectre completes with 0 errors, 117 warnings, and 109 notices.
