
Spectre (R) Circuit Simulator
Version 21.1.0.751.isr19 64bit -- 22 May 2023
Copyright (C) 1989-2023 Cadence Design Systems, Inc. All rights reserved worldwide. Cadence and Spectre are registered trademarks of Cadence Design Systems, Inc. All others are the property of their respective holders.

Includes RSA BSAFE(R) Cryptographic or Security Protocol Software from RSA Security, Inc.

User: oj23092   Host: it075805.wks.bris.ac.uk   HostID: DE89579F   PID: 2109971
Memory  available: 8.6591 GB  physical: 16.2980 GB
Linux   : Rocky Linux release 8.9 (Green Obsidian)
CPU Type: Intel(R) Core(TM) i7-8700 CPU @ 3.20GHz
        Socket: Processors [Frequency] (Hyperthreaded Processor)
        0:       0 [3200.0] (  6 ),  1 [3200.0] (  7 ),  2 [3200.0] (  8 )
                 3 [4298.8] (  9 ),  4 [3200.0] ( 10 ),  5 [3200.0] ( 11 )
        
System load averages (1min, 5min, 15min) : 4.4 %, 2.2 %, 1.2 %
Hyperthreading is enabled
HPC is enabled


Simulating `input.scs' on it075805.wks.bris.ac.uk at 3:31:17 PM, Mon Apr 15, 2024 (process id: 2109971).
Current working directory: /home/oj23092/VLSI_Design_Lab/Sim/lab2024/tb_ycircuitcustom/adexl/results/data/.tmpADEDir_oj23092/lab2024:tb_ycircuitcustom:1/lab2024_tb_ycircuitcustom_schematic_spectre/netlist
Command line:
     \
        /eda/cadence/2022-23/RHELx86/SPECTRE_21.10.751/tools.lnx86/bin/spectre  \
        -64 input.scs +escchars +log  \
        ../../../../Interactive.1/psf/lab2024:tb_ycircuitcustom:1/psf/spectre.out  \
        -format psfbin +rtsf -raw  \
        ../../../../Interactive.1/psf/lab2024:tb_ycircuitcustom:1/psf  \
        +aps +mt +lqtimeout 900 -maxw 5 -maxn 5 +param  \
        /eda/cadence/ams/4.10/spectre/ams_range.lmts -env ade

Licensing Information:
[15:31:17.289682] Configured Lic search path (21.01-s002): 5280@ls-dc2-fen-p1.services.bris.ac.uk:5280@ls-dc2-fen-p0.services.bris.ac.uk

Licensing Information:
[15:31:17.176371] Periodic Lic check successful

Loading /eda/cadence/2022-23/RHELx86/SPECTRE_21.10.751/tools.lnx86/cmi/lib/64bit/5.0/libinfineon_sh.so ...
Loading /eda/cadence/2022-23/RHELx86/SPECTRE_21.10.751/tools.lnx86/cmi/lib/64bit/5.0/libphilips_o_sh.so ...
Loading /eda/cadence/2022-23/RHELx86/SPECTRE_21.10.751/tools.lnx86/cmi/lib/64bit/5.0/libphilips_sh.so ...
Loading /eda/cadence/2022-23/RHELx86/SPECTRE_21.10.751/tools.lnx86/cmi/lib/64bit/5.0/libsparam_sh.so ...
Loading /eda/cadence/2022-23/RHELx86/SPECTRE_21.10.751/tools.lnx86/cmi/lib/64bit/5.0/libstmodels_sh.so ...
Reading file:  /home/oj23092/VLSI_Design_Lab/Sim/lab2024/tb_ycircuitcustom/adexl/results/data/.tmpADEDir_oj23092/lab2024:tb_ycircuitcustom:1/lab2024_tb_ycircuitcustom_schematic_spectre/netlist/input.scs
Reading file:  /eda/cadence/ams/4.10/spectre/ams_range.lmts

Warning from spectre during read of parameter soft limits file `/eda/cadence/ams/4.10/spectre/ams_range.lmts', during circuit read-in.
    WARNING (SPECTRE-8360): line 1511: `ac' is an undefined primitive device.
    WARNING (SPECTRE-8360): line 1512: `ac' is an undefined primitive device.
    WARNING (SPECTRE-8360): line 1513: `ac' is an undefined primitive device.
    WARNING (SPECTRE-8360): line 1514: `ac' is an undefined primitive device.
    WARNING (SPECTRE-8360): line 1515: `ac' is an undefined primitive device.
        Further occurrences of this warning will be suppressed.

Reading file:  /eda/cadence/2022-23/RHELx86/SPECTRE_21.10.751/tools.lnx86/spectre/etc/configs/spectre.cfg
Reading file:  /eda/cadence/ams/4.10/spectre/c35/soac/soac.scs
Reading file:  /eda/cadence/ams/4.10/spectre/c35/soac/processOption.scs
Reading file:  /eda/cadence/ams/4.10/spectre/c35/soac/process.scs
Reading file:  /eda/cadence/ams/4.10/spectre/c35/soac/soac.va

Warning from spectre during AHDL read-in.
    WARNING (VACOMP-2435): The environment variable CDS_AHDLCMI_ENABLE is no longer supported. Therefore, the simulator will use the default compiled C code flow.

Reading link:  /eda/cadence/2022-23/RHELx86/SPECTRE_21.10.751/tools.lnx86/spectre/etc/ahdl/constants.h
Reading file:  /eda/cadence/2022-23/RHELx86/SPECTRE_21.10.751/tools.lnx86/spectre/etc/ahdl/constants.vams
Reading link:  /eda/cadence/2022-23/RHELx86/SPECTRE_21.10.751/tools.lnx86/spectre/etc/ahdl/discipline.h
Reading file:  /eda/cadence/2022-23/RHELx86/SPECTRE_21.10.751/tools.lnx86/spectre/etc/ahdl/disciplines.vams
Reading file:  /eda/cadence/ams/4.10/spectre/c35/processOption/C35B4C3.scs
Reading file:  /eda/cadence/ams/4.10/spectre/c35/soac/cmos53.scs
Reading file:  /eda/cadence/ams/4.10/spectre/c35/soac/res.scs
Reading file:  /eda/cadence/ams/4.10/spectre/c35/soac/cap.scs
Reading file:  /eda/cadence/ams/4.10/spectre/c35/soac/bip.scs
Reading file:  /eda/cadence/ams/4.10/spectre/c35/soac/ind.scs
Reading file:  /eda/cadence/ams/4.10/spectre/c35/soac/esddiode.scs
Time for NDB Parsing: CPU = 73.507 ms, elapsed = 288.294 ms.
Time accumulated: CPU = 126.878 ms, elapsed = 288.296 ms.
Peak resident memory used = 161 Mbytes.

TCP: opening server port it075805.wks.bris.ac.uk:51459
Existing shared object for module modp_ahdl is up to date.
Installed compiled interface for modp_ahdl.
Existing shared object for module modn_ahdl is up to date.
Installed compiled interface for modn_ahdl.
Time for Elaboration: CPU = 16.347 ms, elapsed = 18.7821 ms.
Time accumulated: CPU = 143.292 ms, elapsed = 307.145 ms.
Peak resident memory used = 170 Mbytes.


Notice from spectre during hierarchy flattening.
    The value 'psf' specified for the 'checklimitdest' option will no longer be supported in future releases. Use 'spectre -h' to see other recommended values for the 'checklimitdest' option.


Time for EDB Visiting: CPU = 1.387 ms, elapsed = 1.67418 ms.
Time accumulated: CPU = 144.746 ms, elapsed = 308.885 ms.
Peak resident memory used = 172 Mbytes.

Loading /eda/cadence/2022-23/RHELx86/SPECTRE_21.10.751/tools.lnx86/mdl/lib/64bit/libSpectreEH_sh.so ...

Warning from spectre during initial setup.
    WARNING (SPECTRE-16460): SOAC_cvarm_vspsub:Specified subcircuit master `cvarm' was not found.
    WARNING (SPECTRE-16462): SOAC_cvarm_vspsub:Error in specification of subcircuit master. Assert is ignored.
    WARNING (SPECTRE-16460): SOAC_cvarm_vbs:Specified subcircuit master `cvarm' was not found.
    WARNING (SPECTRE-16462): SOAC_cvarm_vbs:Error in specification of subcircuit master. Assert is ignored.
    WARNING (SPECTRE-16460): SOAC_cvarm_vgb:Specified subcircuit master `cvarm' was not found.
    WARNING (SPECTRE-16462): SOAC_cvarm_vgb:Error in specification of subcircuit master. Assert is ignored.
    WARNING (SPECTRE-16460): SOAC_cvart_vspsub:Specified subcircuit master `cvart' was not found.
    WARNING (SPECTRE-16462): SOAC_cvart_vspsub:Error in specification of subcircuit master. Assert is ignored.
    WARNING (SPECTRE-16460): SOAC_cvart_vbs:Specified subcircuit master `cvart' was not found.
        Further occurrences of this warning will be suppressed.
    WARNING (SPECTRE-16462): SOAC_cvart_vbs:Error in specification of subcircuit master. Assert is ignored.
        Further occurrences of this warning will be suppressed.
Notice from spectre during initial setup.
    Ignorevaref=yes is ignored since all nodes are connected to Verilog-A modules.
Notice from spectre during topology check.
    Only one connection to the following 8 nodes:
        I4.MPD.psub!
        I4.MPC.psub!
        I4.MPB.psub!
        I4.MPA.psub!
        I4.MNC.psub!
        Further occurrences of this notice will be suppressed.
Notice from spectre during initial setup.
    Multithreading is disabled due to the size of the design being too small.


Global user options:
         psfversion = 1.4.0
            vabstol = 1e-06
            iabstol = 1e-12
               temp = 27
           homotopy = 5
              limit = delta
         compatible = spice2
               gmin = 1e-12
             rforce = 1
           maxnotes = 5
           maxwarns = 5
             digits = 5
               cols = 80
             pivrel = 0.001
           sensfile = ../psf/sens.output
     checklimitdest = psf
     enable_pre_ver = yes
      ignorezerovar = yes
               save = allpub
             reltol = 0.0001
               tnom = 27
             scalem = 1
              scale = 1

Scoped user options:

Circuit inventory:
              nodes 17
            bsim3v3 8     
          capacitor 1     
          modn_ahdl 4     
          modp_ahdl 4     
            vsource 5     

Analysis and control statement inventory:
               info 7     
               tran 1     

Output statements:
             .probe 0     
           .measure 0     
               save 1     

Design checks inventory:
          paramtest 8     
             assert 175   


Notice from spectre during initial setup.
    APS enabled.
    1 notice suppressed.
    72 warnings suppressed.

Time for parsing: CPU = 5.989 ms, elapsed = 237.668 ms.
Time accumulated: CPU = 150.791 ms, elapsed = 546.609 ms.
Peak resident memory used = 178 Mbytes.

~~~~~~~~~~~~~~~~~~~~~~
Pre-Simulation Summary
~~~~~~~~~~~~~~~~~~~~~~
   -   (APS) Multi-threading. The recommended number of threads is 1, consider adding +mt=1 on command line.
~~~~~~~~~~~~~~~~~~~~~~

Notice from spectre during transient analysis `tran'.
    No checklimit analysis defined for asserts. A default checklimit analysis 'SpectreChecklimitAnal' has been created with all asserts enabled.


************************************************
Transient Analysis `tran': time = (0 s -> 20 ns)
************************************************

Notice from spectre during IC analysis, during transient analysis `tran'.
    GminDC = 1 pS is large enough to noticeably affect the DC solution.
        dV(I4.net2) = 101.841 mV
        Use the `gmin_check' option to eliminate or expand this report.
Warning from spectre during check, during IC analysis, during transient analysis `tran'.
    WARNING (CMI-2943): Parameter checks have been ignored because the valid value for parameter 'trise' could not be found in 'C0'.

DC simulation time: CPU = 437 us, elapsed = 437.021 us.

Opening the PSF file ../../../../Interactive.1/psf/lab2024:tb_ycircuitcustom:1/psf/tran.tran.tran ...
Important parameter values:
    start = 0 s
    outputstart = 0 s
    stop = 20 ns
    step = 20 ps
    maxstep = 200 ps
    ic = all
    useprevic = no
    skipdc = no
    reltol = 10e-06
    abstol(V) = 1 uV
    abstol(I) = 1 pA
    temp = 27 C
    tnom = 27 C
    tempeffects = all
    errpreset = conservative
    method = gear2only
    lteratio = 10
    relref = alllocal
    cmin = 0 F
    gmin = 1 pS
    rabsshort = 1 mOhm


Notice from spectre during transient analysis `tran'.
    Multithreading is disabled due to the size of the design being too small.


Output and IC/nodeset summary:
                 save   5       (current)
                 save   17      (voltage)

    tran: time = 509.1 ps    (2.55 %), step = 26.25 ps     (131 m%)
SOAC: I4.MND.soac_m1       modn V(B,PSUB): LEAVING@  0us ;
SOAC: I4.MND.soac_m1       modn V(B,PSUB): ENTERING@ 0.00117611us duration:0.00118us ;
    tran: time = 1.513 ns    (7.57 %), step = 18.07 ps    (90.3 m%)
    tran: time = 2.526 ns    (12.6 %), step = 27.43 ps     (137 m%)
    tran: time = 3.517 ns    (17.6 %), step = 25.42 ps     (127 m%)
SOAC: I4.MND.soac_m1       modn V(B,PSUB): LEAVING@  0.00310073us ;
    tran: time = 4.507 ns    (22.5 %), step = 48.63 ps     (243 m%)
SOAC: I4.MND.soac_m1       modn V(B,PSUB): ENTERING@ 0.0050251us duration:0.00192us ;
    tran: time = 5.502 ns    (27.5 %), step = 44.11 ps     (221 m%)
    tran: time = 6.508 ns    (32.5 %), step = 10.27 ps    (51.4 m%)
    tran: time = 7.523 ns    (37.6 %), step = 26 ps        (130 m%)
SOAC: I4.MND.soac_m1       modn V(B,PSUB): LEAVING@  0.00710072us ;
    tran: time = 8.508 ns    (42.5 %), step = 48.68 ps     (243 m%)
SOAC: I4.MND.soac_m1       modn V(B,PSUB): ENTERING@ 0.0090427us duration:0.00194us ;
    tran: time = 9.51 ns     (47.5 %), step = 33.26 ps     (166 m%)
    tran: time = 10.51 ns    (52.6 %), step = 24.01 ps     (120 m%)
    tran: time = 11.51 ns    (57.6 %), step = 15.88 ps    (79.4 m%)
    tran: time = 12.52 ns    (62.6 %), step = 61.72 ps     (309 m%)
SOAC: I4.MND.soac_m1       modn V(B,PSUB): LEAVING@  0.0120277us ;
SOAC: I4.MND.soac_m1       modn V(B,PSUB): ENTERING@ 0.0131118us duration:0.00108us ;
    tran: time = 13.54 ns    (67.7 %), step = 46.03 ps     (230 m%)
    tran: time = 14.52 ns    (72.6 %), step = 34.54 ps     (173 m%)
    tran: time = 15.51 ns    (77.5 %), step = 12.03 ps    (60.1 m%)
SOAC: I4.MND.soac_m1       modn V(B,PSUB): LEAVING@  0.0150041us ;
    tran: time = 16.51 ns    (82.6 %), step = 30.75 ps     (154 m%)
SOAC: I4.MND.soac_m1       modn V(B,PSUB): ENTERING@ 0.0171288us duration:0.00212us ;
    tran: time = 17.51 ns    (87.5 %), step = 64.26 ps     (321 m%)
    tran: time = 18.52 ns    (92.6 %), step = 34.53 ps     (173 m%)
    tran: time = 19.51 ns    (97.5 %), step = 27.81 ps     (139 m%)
Number of accepted tran steps =             2734

Maximum value achieved for any signal of each quantity: 
V: V(I4.net1) = 3.735 V
I: I(V:p) = 712.1 uA

~~~~~~~~~~~~~~~~~~~~~~~~~~~~~~~~~
Post-Transient Simulation Summary
~~~~~~~~~~~~~~~~~~~~~~~~~~~~~~~~~
   -   To further speed up simulation, consider
          add ++aps on command line
   -   Non-default settings that could significantly slow down simulation
          errpreset = conservative, default moderate
          reltol = 10e-06, default 100e-06 (conservative)
   -   Features that may significantly slowing down simulation
          asserts = 54.9686 ms
~~~~~~~~~~~~~~~~~~~~~~~~~~~~~~~~~


During simulation, the CPU load for active processors is :
         0 (12.2 %)      1 (15.9 %)      2 (2.5 %)       3 (4.8 %)
         4 (3.7 %)       5 (3.6 %)       6 (3.7 %)       7 (8.2 %)
         8 (34.5 %)      9 (6.0 %)      10 (1.2 %)      11 (6.0 %)
        Total: 102.3%
Initial condition solution time: CPU = 458 us, elapsed = 458.956 us.
Intrinsic tran analysis time:    CPU = 292.525 ms, elapsed = 300.184 ms.
Total time required for tran analysis `tran': CPU = 295.481 ms, elapsed = 316.242 ms, util. = 93.4%.
Time accumulated: CPU = 451.469 ms, elapsed = 874.073 ms.
Peak resident memory used = 187 Mbytes.

finalTimeOP: writing operating point information to rawfile.

Opening the PSF file ../../../../Interactive.1/psf/lab2024:tb_ycircuitcustom:1/psf/finalTimeOP.info ...
modelParameter: writing model parameter values to rawfile.

Opening the PSF file ../../../../Interactive.1/psf/lab2024:tb_ycircuitcustom:1/psf/modelParameter.info ...
element: writing instance parameter values to rawfile.

Opening the PSF file ../../../../Interactive.1/psf/lab2024:tb_ycircuitcustom:1/psf/element.info ...
outputParameter: writing output parameter values to rawfile.

Opening the PSF file ../../../../Interactive.1/psf/lab2024:tb_ycircuitcustom:1/psf/outputParameter.info ...
designParamVals: writing netlist parameters to rawfile.

Opening the PSFASCII file ../../../../Interactive.1/psf/lab2024:tb_ycircuitcustom:1/psf/designParamVals.info ...
primitives: writing primitives to rawfile.

Opening the PSFASCII file ../../../../Interactive.1/psf/lab2024:tb_ycircuitcustom:1/psf/primitives.info.primitives ...
subckts: writing subcircuits to rawfile.

Opening the PSFASCII file ../../../../Interactive.1/psf/lab2024:tb_ycircuitcustom:1/psf/subckts.info.subckts ...
Licensing Information:
Lic Summary:
[15:31:18.382675] Cdslmd servers:5280@ls-dc2-fen-p1.services.bris.ac.uk:5280@ls-dc2-fen-p0.services.bris.ac.uk
[15:31:18.382690] Feature usage summary:
[15:31:18.382690] Virtuoso_Multi_mode_Simulation


Aggregate audit (3:31:18 PM, Mon Apr 15, 2024):
Time used: CPU = 464 ms, elapsed = 902 ms, util. = 51.5%.
Time spent in licensing: elapsed = 163 ms, percentage of total = 18.1%.
Peak memory used = 189 Mbytes.
Simulation started at: 3:31:17 PM, Mon Apr 15, 2024, ended at: 3:31:18 PM, Mon Apr 15, 2024, with elapsed time (wall clock): 902 ms.
spectre completes with 0 errors, 17 warnings, and 10 notices.
