
Spectre (R) Circuit Simulator
Version 21.1.0.751.isr19 64bit -- 22 May 2023
Copyright (C) 1989-2023 Cadence Design Systems, Inc. All rights reserved worldwide. Cadence and Spectre are registered trademarks of Cadence Design Systems, Inc. All others are the property of their respective holders.

Includes RSA BSAFE(R) Cryptographic or Security Protocol Software from RSA Security, Inc.

User: oj23092   Host: it075891.wks.bris.ac.uk   HostID: DE89A69F   PID: 256316
Memory  available: 12.6873 GB  physical: 16.2980 GB
Linux   : Rocky Linux release 8.9 (Green Obsidian)
CPU Type: Intel(R) Core(TM) i7-8700 CPU @ 3.20GHz
        Socket: Processors [Frequency] (Hyperthreaded Processor)
        0:       0 [3200.0] (  6 ),  1 [3200.0] (  7 ),  2 [3200.0] (  8 )
                 3 [3200.0] (  9 ),  4 [4299.2] ( 10 ),  5 [3200.0] ( 11 )
        
System load averages (1min, 5min, 15min) : 4.6 %, 3.5 %, 2.4 %
Hyperthreading is enabled
HPC is enabled


Simulating `input.scs' on it075891.wks.bris.ac.uk at 10:31:58 PM, Sat Apr 20, 2024 (process id: 256316).
Current working directory: /home/oj23092/VLSI_Design_Lab/Sim/lab2024/tb_ycircuitcustom/adexl/results/data/MonteCarlo.3/1/lab2024:tb_ycircuitcustom:1/groupRunDataDir/netlist
Command line:
     \
        /eda/cadence/2022-23/RHELx86/SPECTRE_21.10.751/tools.lnx86/bin/spectre  \
        -64 input.scs +escchars +log ../psf/spectre.out -format psfbin  \
        +rtsf -raw ../psf +aps +mt +lqtimeout 900 -maxw 5 -maxn 5  \
        +param /eda/cadence/ams/4.10/spectre/ams_range.lmts -env ade  \
        -ahdllibdir  \
        /home/oj23092/VLSI_Design_Lab/Sim/lab2024/tb_ycircuitcustom/adexl/results/data/MonteCarlo.3/sharedData/Job3/ahdl/input.ahdlSimDB  \
        +logstatus

Licensing Information:
[22:31:58.289706] Configured Lic search path (21.01-s002): 5280@ls-dc2-fen-p1.services.bris.ac.uk:5280@ls-dc2-fen-p0.services.bris.ac.uk

Licensing Information:
[22:31:58.364035] Periodic Lic check successful

Loading /eda/cadence/2022-23/RHELx86/SPECTRE_21.10.751/tools.lnx86/cmi/lib/64bit/5.0/libinfineon_sh.so ...
Loading /eda/cadence/2022-23/RHELx86/SPECTRE_21.10.751/tools.lnx86/cmi/lib/64bit/5.0/libphilips_o_sh.so ...
Loading /eda/cadence/2022-23/RHELx86/SPECTRE_21.10.751/tools.lnx86/cmi/lib/64bit/5.0/libphilips_sh.so ...
Loading /eda/cadence/2022-23/RHELx86/SPECTRE_21.10.751/tools.lnx86/cmi/lib/64bit/5.0/libsparam_sh.so ...
Loading /eda/cadence/2022-23/RHELx86/SPECTRE_21.10.751/tools.lnx86/cmi/lib/64bit/5.0/libstmodels_sh.so ...
Reading file:  /home/oj23092/VLSI_Design_Lab/Sim/lab2024/tb_ycircuitcustom/adexl/results/data/MonteCarlo.3/1/lab2024:tb_ycircuitcustom:1/groupRunDataDir/netlist/input.scs
Reading file:  /eda/cadence/ams/4.10/spectre/ams_range.lmts

Warning from spectre during read of parameter soft limits file `/eda/cadence/ams/4.10/spectre/ams_range.lmts', during circuit read-in.
    WARNING (SPECTRE-8360): line 1511: `ac' is an undefined primitive device.
    WARNING (SPECTRE-8360): line 1512: `ac' is an undefined primitive device.
    WARNING (SPECTRE-8360): line 1513: `ac' is an undefined primitive device.
    WARNING (SPECTRE-8360): line 1514: `ac' is an undefined primitive device.
    WARNING (SPECTRE-8360): line 1515: `ac' is an undefined primitive device.
        Further occurrences of this warning will be suppressed.

Reading file:  /eda/cadence/2022-23/RHELx86/SPECTRE_21.10.751/tools.lnx86/spectre/etc/configs/spectre.cfg
Reading file:  /eda/cadence/ams/4.10/spectre/c35/soac/soac.scs
Reading file:  /eda/cadence/ams/4.10/spectre/c35/soac/processOption.scs
Reading file:  /eda/cadence/ams/4.10/spectre/c35/soac/process.scs
Reading file:  /eda/cadence/ams/4.10/spectre/c35/soac/soac.va

Warning from spectre during AHDL read-in.
    WARNING (VACOMP-2435): The environment variable CDS_AHDLCMI_ENABLE is no longer supported. Therefore, the simulator will use the default compiled C code flow.

Reading link:  /eda/cadence/2022-23/RHELx86/SPECTRE_21.10.751/tools.lnx86/spectre/etc/ahdl/constants.h
Reading file:  /eda/cadence/2022-23/RHELx86/SPECTRE_21.10.751/tools.lnx86/spectre/etc/ahdl/constants.vams
Reading link:  /eda/cadence/2022-23/RHELx86/SPECTRE_21.10.751/tools.lnx86/spectre/etc/ahdl/discipline.h
Reading file:  /eda/cadence/2022-23/RHELx86/SPECTRE_21.10.751/tools.lnx86/spectre/etc/ahdl/disciplines.vams
Reading file:  /eda/cadence/ams/4.10/spectre/c35/processOption/C35B4C3.scs
Reading file:  /eda/cadence/ams/4.10/spectre/c35/soac/cmos53.scs
Reading file:  /eda/cadence/ams/4.10/spectre/c35/soac/res.scs
Reading file:  /eda/cadence/ams/4.10/spectre/c35/soac/cap.scs
Reading file:  /eda/cadence/ams/4.10/spectre/c35/soac/bip.scs
Reading file:  /eda/cadence/ams/4.10/spectre/c35/soac/ind.scs
Reading file:  /eda/cadence/ams/4.10/spectre/c35/soac/esddiode.scs
Time for NDB Parsing: CPU = 71.857 ms, elapsed = 306.557 ms.
Time accumulated: CPU = 129.895 ms, elapsed = 306.559 ms.
Peak resident memory used = 163 Mbytes.

TCP: opening server port it075891.wks.bris.ac.uk:56725
Existing shared object for module modp_ahdl is up to date.
Installed compiled interface for modp_ahdl.
Existing shared object for module modn_ahdl is up to date.
Installed compiled interface for modn_ahdl.
Time for Elaboration: CPU = 20.396 ms, elapsed = 22.9261 ms.
Time accumulated: CPU = 150.379 ms, elapsed = 329.574 ms.
Peak resident memory used = 173 Mbytes.


Notice from spectre during hierarchy flattening.
    The value 'psf' specified for the 'checklimitdest' option will no longer be supported in future releases. Use 'spectre -h' to see other recommended values for the 'checklimitdest' option.


Time for EDB Visiting: CPU = 1.327 ms, elapsed = 1.59597 ms.
Time accumulated: CPU = 151.77 ms, elapsed = 331.235 ms.
Peak resident memory used = 175 Mbytes.

Loading /eda/cadence/2022-23/RHELx86/SPECTRE_21.10.751/tools.lnx86/mdl/lib/64bit/libSpectreEH_sh.so ...

Warning from spectre during initial setup.
    WARNING (SPECTRE-16460): SOAC_cvarm_vspsub:Specified subcircuit master `cvarm' was not found.
    WARNING (SPECTRE-16462): SOAC_cvarm_vspsub:Error in specification of subcircuit master. Assert is ignored.
    WARNING (SPECTRE-16460): SOAC_cvarm_vbs:Specified subcircuit master `cvarm' was not found.
    WARNING (SPECTRE-16462): SOAC_cvarm_vbs:Error in specification of subcircuit master. Assert is ignored.
    WARNING (SPECTRE-16460): SOAC_cvarm_vgb:Specified subcircuit master `cvarm' was not found.
    WARNING (SPECTRE-16462): SOAC_cvarm_vgb:Error in specification of subcircuit master. Assert is ignored.
    WARNING (SPECTRE-16460): SOAC_cvart_vspsub:Specified subcircuit master `cvart' was not found.
    WARNING (SPECTRE-16462): SOAC_cvart_vspsub:Error in specification of subcircuit master. Assert is ignored.
    WARNING (SPECTRE-16460): SOAC_cvart_vbs:Specified subcircuit master `cvart' was not found.
        Further occurrences of this warning will be suppressed.
    WARNING (SPECTRE-16462): SOAC_cvart_vbs:Error in specification of subcircuit master. Assert is ignored.
        Further occurrences of this warning will be suppressed.
Notice from spectre during initial setup.
    Ignorevaref=yes is ignored since all nodes are connected to Verilog-A modules.
Notice from spectre during topology check.
    Only one connection to the following 8 nodes:
        I4.MPD.psub!
        I4.MPC.psub!
        I4.MPB.psub!
        I4.MPA.psub!
        I4.MNC.psub!
        Further occurrences of this notice will be suppressed.
Notice from spectre during initial setup.
    Multithreading is disabled due to the size of the design being too small.


Global user options:
         psfversion = 1.4.0
            vabstol = 1e-06
            iabstol = 1e-12
               temp = 27
           homotopy = 5
              limit = delta
         compatible = spice2
               gmin = 1e-12
             rforce = 1
           maxnotes = 5
           maxwarns = 5
             digits = 5
               cols = 80
             pivrel = 0.001
           sensfile = ../psf/sens.output
     checklimitdest = psf
     enable_pre_ver = yes
      ignorezerovar = yes
               save = allpub
             reltol = 0.0001
               tnom = 27
             scalem = 1
              scale = 1

Scoped user options:

Circuit inventory:
              nodes 17
            bsim3v3 8     
          capacitor 1     
          modn_ahdl 4     
          modp_ahdl 4     
            vsource 5     

Analysis and control statement inventory:
               info 7     
         montecarlo 1     
               tran 1     

Output statements:
             .probe 0     
           .measure 0     
               save 1     

Design checks inventory:
          paramtest 8     
             assert 175   


Notice from spectre during initial setup.
    APS enabled.
    1 notice suppressed.
    72 warnings suppressed.

Time for parsing: CPU = 5.872 ms, elapsed = 272.062 ms.
Time accumulated: CPU = 157.695 ms, elapsed = 603.349 ms.
Peak resident memory used = 180 Mbytes.

~~~~~~~~~~~~~~~~~~~~~~
Pre-Simulation Summary
~~~~~~~~~~~~~~~~~~~~~~
   -   (APS) Multi-threading. The recommended number of threads is 1, consider adding +mt=1 on command line.
~~~~~~~~~~~~~~~~~~~~~~

**************************************************
Monte Carlo Analysis `mc1': iteration = (1 -> 100)
**************************************************
Important parameter values:
    seed = 12345
    sampling = standard
    variations = all
    firstrun = 1
    numruns = 100
    nullmfactorcorrelation = no
    donominal = yes
    method = standard

**** Performing nominal run for `mc1'

Notice from spectre during transient analysis `tran', during Monte Carlo analysis `mc1'.
    No checklimit analysis defined for asserts. A default checklimit analysis 'SpectreChecklimitAnal' has been created with all asserts enabled.


************************************************
Transient Analysis `tran': time = (0 s -> 20 ns)
************************************************

Notice from spectre during IC analysis, during transient analysis `tran', during Monte Carlo analysis `mc1'.
    GminDC = 1 pS is large enough to noticeably affect the DC solution.
        dV(I4.net2) = 101.841 mV
        Use the `gmin_check' option to eliminate or expand this report.
Warning from spectre during check, during IC analysis, during transient analysis `tran', during Monte Carlo analysis `mc1'.
    WARNING (CMI-2943): Parameter checks have been ignored because the valid value for parameter 'trise' could not be found in 'C0'.

DC simulation time: CPU = 424 us, elapsed = 424.862 us.

Opening the PSF file ../psf/nom/tran.tran.tran ...
Important parameter values:
    start = 0 s
    outputstart = 0 s
    stop = 20 ns
    step = 20 ps
    maxstep = 200 ps
    ic = all
    useprevic = no
    skipdc = no
    reltol = 10e-06
    abstol(V) = 1 uV
    abstol(I) = 1 pA
    temp = 27 C
    tnom = 27 C
    tempeffects = all
    errpreset = conservative
    method = gear2only
    lteratio = 10
    relref = alllocal
    cmin = 0 F
    gmin = 1 pS
    rabsshort = 1 mOhm


Notice from spectre during transient analysis `tran', during Monte Carlo analysis `mc1'.
    Multithreading is disabled due to the size of the design being too small.


Output and IC/nodeset summary:
                 save   5       (current)
                 save   17      (voltage)

    tran: time = 509.1 ps    (2.55 %), step = 26.25 ps     (131 m%)
SOAC: I4.MND.soac_m1       modn V(B,PSUB): LEAVING@  0us ;
SOAC: I4.MND.soac_m1       modn V(B,PSUB): ENTERING@ 0.00117611us duration:0.00118us ;
    tran: time = 1.513 ns    (7.57 %), step = 18.07 ps    (90.3 m%)
    tran: time = 2.526 ns    (12.6 %), step = 27.43 ps     (137 m%)
    tran: time = 3.517 ns    (17.6 %), step = 25.42 ps     (127 m%)
SOAC: I4.MND.soac_m1       modn V(B,PSUB): LEAVING@  0.00310073us ;
    tran: time = 4.507 ns    (22.5 %), step = 48.63 ps     (243 m%)
SOAC: I4.MND.soac_m1       modn V(B,PSUB): ENTERING@ 0.0050251us duration:0.00192us ;
    tran: time = 5.502 ns    (27.5 %), step = 44.11 ps     (221 m%)
    tran: time = 6.508 ns    (32.5 %), step = 10.27 ps    (51.4 m%)
    tran: time = 7.523 ns    (37.6 %), step = 26 ps        (130 m%)
SOAC: I4.MND.soac_m1       modn V(B,PSUB): LEAVING@  0.00710072us ;
    tran: time = 8.508 ns    (42.5 %), step = 48.68 ps     (243 m%)
SOAC: I4.MND.soac_m1       modn V(B,PSUB): ENTERING@ 0.0090427us duration:0.00194us ;
    tran: time = 9.51 ns     (47.5 %), step = 33.26 ps     (166 m%)
    tran: time = 10.51 ns    (52.6 %), step = 24.01 ps     (120 m%)
    tran: time = 11.51 ns    (57.6 %), step = 15.88 ps    (79.4 m%)
    tran: time = 12.52 ns    (62.6 %), step = 61.72 ps     (309 m%)
SOAC: I4.MND.soac_m1       modn V(B,PSUB): LEAVING@  0.0120277us ;
SOAC: I4.MND.soac_m1       modn V(B,PSUB): ENTERING@ 0.0131118us duration:0.00108us ;
    tran: time = 13.54 ns    (67.7 %), step = 46.03 ps     (230 m%)
    tran: time = 14.52 ns    (72.6 %), step = 34.54 ps     (173 m%)
    tran: time = 15.51 ns    (77.5 %), step = 12.03 ps    (60.1 m%)
SOAC: I4.MND.soac_m1       modn V(B,PSUB): LEAVING@  0.0150041us ;
    tran: time = 16.51 ns    (82.6 %), step = 30.75 ps     (154 m%)
SOAC: I4.MND.soac_m1       modn V(B,PSUB): ENTERING@ 0.0171288us duration:0.00212us ;
    tran: time = 17.51 ns    (87.5 %), step = 64.26 ps     (321 m%)
    tran: time = 18.52 ns    (92.6 %), step = 34.53 ps     (173 m%)
    tran: time = 19.51 ns    (97.5 %), step = 27.81 ps     (139 m%)
Number of accepted tran steps =             2734

Maximum value achieved for any signal of each quantity: 
V: V(I4.net1) = 3.735 V
I: I(V:p) = 712.1 uA

~~~~~~~~~~~~~~~~~~~~~~~~~~~~~~~~~
Post-Transient Simulation Summary
~~~~~~~~~~~~~~~~~~~~~~~~~~~~~~~~~
   -   To further speed up simulation, consider
          add ++aps on command line
   -   Non-default settings that could significantly slow down simulation
          errpreset = conservative, default moderate
          reltol = 10e-06, default 100e-06 (conservative)
   -   Features that may significantly slowing down simulation
          asserts = 56.0701 ms
~~~~~~~~~~~~~~~~~~~~~~~~~~~~~~~~~


During simulation, the CPU load for active processors is :
         0 (9.2 %)       1 (1.1 %)       2 (2.3 %)       3 (5.6 %)
         4 (38.6 %)      5 (3.4 %)       6 (8.0 %)       7 (2.3 %)
         8 (1.1 %)       9 (1.1 %)      10 (1.1 %)      11 (6.9 %)
        Total: 80.7%
Initial condition solution time: CPU = 445 us, elapsed = 446.081 us.
Intrinsic tran analysis time:    CPU = 284.993 ms, elapsed = 297.091 ms.
Total time required for tran analysis `tran': CPU = 287.967 ms, elapsed = 317.922 ms, util. = 90.6%.
Time accumulated: CPU = 450.249 ms, elapsed = 933.667 ms.
Peak resident memory used = 189 Mbytes.

finalTimeOP: writing operating point information to rawfile.

Opening the PSF file ../psf/nom/finalTimeOP.info ...
modelParameter: writing model parameter values to rawfile.

Opening the PSF file ../psf/nom/modelParameter.info ...
element: writing instance parameter values to rawfile.

Opening the PSF file ../psf/nom/element.info ...
outputParameter: writing output parameter values to rawfile.

Opening the PSF file ../psf/nom/outputParameter.info ...
designParamVals: writing netlist parameters to rawfile.

Opening the PSFASCII file ../psf/nom/designParamVals.info ...
primitives: writing primitives to rawfile.

Opening the PSFASCII file ../psf/nom/primitives.info.primitives ...
subckts: writing subcircuits to rawfile.

Opening the PSFASCII file ../psf/nom/subckts.info.subckts ...
Opening process scalar file:  /home/oj23092/VLSI_Design_Lab/Sim/lab2024/tb_ycircuitcustom/adexl/results/data/MonteCarlo.3/1/lab2024:tb_ycircuitcustom:1/groupRunDataDir/netlist/../psf/../monteCarlo/processData
Opening process param file:  /home/oj23092/VLSI_Design_Lab/Sim/lab2024/tb_ycircuitcustom/adexl/results/data/MonteCarlo.3/1/lab2024:tb_ycircuitcustom:1/groupRunDataDir/netlist/../psf/../monteCarlo/processParam
Opening process full param file:  /home/oj23092/VLSI_Design_Lab/Sim/lab2024/tb_ycircuitcustom/adexl/results/data/MonteCarlo.3/1/lab2024:tb_ycircuitcustom:1/groupRunDataDir/netlist/../psf/mc1.process_full.mcparam
Opening process correlation param file:  /home/oj23092/VLSI_Design_Lab/Sim/lab2024/tb_ycircuitcustom/adexl/results/data/MonteCarlo.3/1/lab2024:tb_ycircuitcustom:1/groupRunDataDir/netlist/../psf/mc1.process.correlate.mcparam
Opening mismatch full param file:  /home/oj23092/VLSI_Design_Lab/Sim/lab2024/tb_ycircuitcustom/adexl/results/data/MonteCarlo.3/1/lab2024:tb_ycircuitcustom:1/groupRunDataDir/netlist/../psf/mc1.mismatch_full.mcparam
Opening mismatch correlation param file:  /home/oj23092/VLSI_Design_Lab/Sim/lab2024/tb_ycircuitcustom/adexl/results/data/MonteCarlo.3/1/lab2024:tb_ycircuitcustom:1/groupRunDataDir/netlist/../psf/mc1.mismatch.correlate.mcparam
Opening iteration number and data-directory mapping file:  /home/oj23092/VLSI_Design_Lab/Sim/lab2024/tb_ycircuitcustom/adexl/results/data/MonteCarlo.3/1/lab2024:tb_ycircuitcustom:1/groupRunDataDir/netlist/../psf/mc1.mapping

Statistical parameters:
    Defined process parameters: 629
    Defined mismatch parameters (subckt based): 86
    Non-referenced mismatch parameters: 86
    Number of random variables: 629
    Gaussian truncation for process parameters: 4.00 sigma
    Gaussian truncation for mismatch parameters: 4.00 sigma


Opening the PSF file ../psf/mc1_tran.montecarlo ...

Opening the PSF file ../psf/mc1_finalTimeOP.montecarlo ...

Opening the PSF file ../psf/mc1_modelParameter.montecarlo ...

Opening the PSF file ../psf/mc1_element.montecarlo ...

Opening the PSF file ../psf/mc1_outputParameter.montecarlo ...

Opening the PSF file ../psf/mc1_designParamVals.montecarlo ...

Opening the PSF file ../psf/mc1_primitives.montecarlo ...

Opening the PSF file ../psf/mc1_subckts.montecarlo ...

**** Performing monte carlo loop for `mc1'

1              0.00% 

************************************************
Transient Analysis `tran': time = (0 s -> 20 ns)
************************************************

Opening the PSF file ../psf/mc1_separate/001/tran.tran.tran ...

Notice from spectre at iteration = 1 during IC analysis, during transient analysis `tran', during Monte Carlo analysis `mc1'.
    GminDC = 1 pS is large enough to noticeably affect the DC solution.
        dV(I4.net2) = 101.841 mV
        Use the `gmin_check' option to eliminate or expand this report.
Warning from spectre at iteration = 1 during check, during IC analysis, during transient analysis `tran', during Monte Carlo analysis `mc1'.
    WARNING (CMI-2943): Parameter checks have been ignored because the valid value for parameter 'trise' could not be found in 'C0'.

DC simulation time: CPU = 374 us, elapsed = 376.94 us.
Important parameter values:
    start = 0 s
    outputstart = 0 s
    stop = 20 ns
    step = 20 ps
    maxstep = 200 ps
    ic = all
    useprevic = no
    skipdc = no
    reltol = 10e-06
    abstol(V) = 1 uV
    abstol(I) = 1 pA
    temp = 27 C
    tnom = 27 C
    tempeffects = all
    errpreset = conservative
    method = gear2only
    lteratio = 10
    relref = alllocal
    cmin = 0 F
    gmin = 1 pS
    rabsshort = 1 mOhm


Notice from spectre at iteration = 1 during transient analysis `tran', during Monte Carlo analysis `mc1'.
    Multithreading is disabled due to the size of the design being too small.


Output and IC/nodeset summary:
                 save   5       (current)
                 save   17      (voltage)


Opening the PSF file ../psf/mc1_tranViolations.montecarlo ...
    tran: time = 509.1 ps    (2.55 %), step = 26.25 ps     (131 m%)
SOAC: I4.MND.soac_m1       modn V(B,PSUB): LEAVING@  0us ;
SOAC: I4.MND.soac_m1       modn V(B,PSUB): ENTERING@ 0.00117611us duration:0.00118us ;
    tran: time = 1.513 ns    (7.57 %), step = 18.07 ps    (90.3 m%)
    tran: time = 2.526 ns    (12.6 %), step = 27.43 ps     (137 m%)
    tran: time = 3.517 ns    (17.6 %), step = 25.42 ps     (127 m%)
SOAC: I4.MND.soac_m1       modn V(B,PSUB): LEAVING@  0.00310073us ;
    tran: time = 4.507 ns    (22.5 %), step = 48.63 ps     (243 m%)
SOAC: I4.MND.soac_m1       modn V(B,PSUB): ENTERING@ 0.0050251us duration:0.00192us ;
    tran: time = 5.502 ns    (27.5 %), step = 44.11 ps     (221 m%)
    tran: time = 6.508 ns    (32.5 %), step = 10.27 ps    (51.4 m%)
    tran: time = 7.523 ns    (37.6 %), step = 26 ps        (130 m%)
SOAC: I4.MND.soac_m1       modn V(B,PSUB): LEAVING@  0.00710072us ;
    tran: time = 8.508 ns    (42.5 %), step = 48.68 ps     (243 m%)
SOAC: I4.MND.soac_m1       modn V(B,PSUB): ENTERING@ 0.0090427us duration:0.00194us ;
    tran: time = 9.51 ns     (47.5 %), step = 33.26 ps     (166 m%)
    tran: time = 10.51 ns    (52.6 %), step = 24.01 ps     (120 m%)
    tran: time = 11.51 ns    (57.6 %), step = 15.88 ps    (79.4 m%)
    tran: time = 12.52 ns    (62.6 %), step = 61.72 ps     (309 m%)
SOAC: I4.MND.soac_m1       modn V(B,PSUB): LEAVING@  0.0120277us ;
SOAC: I4.MND.soac_m1       modn V(B,PSUB): ENTERING@ 0.0131118us duration:0.00108us ;
    tran: time = 13.54 ns    (67.7 %), step = 46.03 ps     (230 m%)
    tran: time = 14.52 ns    (72.6 %), step = 34.54 ps     (173 m%)
    tran: time = 15.51 ns    (77.5 %), step = 12.03 ps    (60.1 m%)
SOAC: I4.MND.soac_m1       modn V(B,PSUB): LEAVING@  0.0150041us ;
    tran: time = 16.51 ns    (82.6 %), step = 30.75 ps     (154 m%)
SOAC: I4.MND.soac_m1       modn V(B,PSUB): ENTERING@ 0.0171288us duration:0.00212us ;
    tran: time = 17.51 ns    (87.5 %), step = 64.26 ps     (321 m%)
    tran: time = 18.52 ns    (92.6 %), step = 34.53 ps     (173 m%)
    tran: time = 19.51 ns    (97.5 %), step = 27.81 ps     (139 m%)
Number of accepted tran steps =             2734

Maximum value achieved for any signal of each quantity: 
V: V(I4.net1) = 3.735 V
I: I(V:p) = 712.1 uA

~~~~~~~~~~~~~~~~~~~~~~~~~~~~~~~~~
Post-Transient Simulation Summary
~~~~~~~~~~~~~~~~~~~~~~~~~~~~~~~~~
   -   To further speed up simulation, consider
          add ++aps on command line
   -   Non-default settings that could significantly slow down simulation
          errpreset = conservative, default moderate
          reltol = 10e-06, default 100e-06 (conservative)
~~~~~~~~~~~~~~~~~~~~~~~~~~~~~~~~~


During simulation, the CPU load for active processors is :
         0 (6.5 %)       2 (1.6 %)       3 (4.0 %)       4 (28.6 %)
         5 (2.4 %)       6 (8.8 %)       7 (22.6 %)      9 (1.6 %)
        11 (5.6 %)      
        Total: 84.1%
Initial condition solution time: CPU = 390 us, elapsed = 393.867 us.
Intrinsic tran analysis time:    CPU = 247.833 ms, elapsed = 260.036 ms.
Total time required for tran analysis `tran': CPU = 249.632 ms, elapsed = 270.449 ms, util. = 92.3%.
Time accumulated: CPU = 728.318 ms, elapsed = 1.28001 s.
Peak resident memory used = 197 Mbytes.

finalTimeOP: writing operating point information to rawfile.

Opening the PSF file ../psf/mc1_separate/001/finalTimeOP.info ...
modelParameter: writing model parameter values to rawfile.

Opening the PSF file ../psf/mc1_separate/001/modelParameter.info ...
element: writing instance parameter values to rawfile.

Opening the PSF file ../psf/mc1_separate/001/element.info ...
outputParameter: writing output parameter values to rawfile.

Opening the PSF file ../psf/mc1_separate/001/outputParameter.info ...
designParamVals: writing netlist parameters to rawfile.

Opening the PSFASCII file ../psf/mc1_separate/001/designParamVals.info ...
primitives: writing primitives to rawfile.

Opening the PSFASCII file ../psf/mc1_separate/001/primitives.info.primitives ...
subckts: writing subcircuits to rawfile.

Opening the PSFASCII file ../psf/mc1_separate/001/subckts.info.subckts ...
2              1.01% 

************************************************
Transient Analysis `tran': time = (0 s -> 20 ns)
************************************************

Opening the PSF file ../psf/mc1_separate/002/tran.tran.tran ...

Notice from spectre during IC analysis, during transient analysis `tran', during Monte Carlo analysis `mc1'.
    GminDC = 1 pS is large enough to noticeably affect the DC solution.
        dV(I4.net2) = 101.841 mV
        Use the `gmin_check' option to eliminate or expand this report.
Warning from spectre during check, during IC analysis, during transient analysis `tran', during Monte Carlo analysis `mc1'.
    WARNING (CMI-2943): Parameter checks have been ignored because the valid value for parameter 'trise' could not be found in 'C0'.

DC simulation time: CPU = 325 us, elapsed = 324.011 us.
Important parameter values:
    start = 0 s
    outputstart = 0 s
    stop = 20 ns
    step = 20 ps
    maxstep = 200 ps
    ic = all
    useprevic = no
    skipdc = no
    reltol = 10e-06
    abstol(V) = 1 uV
    abstol(I) = 1 pA
    temp = 27 C
    tnom = 27 C
    tempeffects = all
    errpreset = conservative
    method = gear2only
    lteratio = 10
    relref = alllocal
    cmin = 0 F
    gmin = 1 pS
    rabsshort = 1 mOhm


Notice from spectre during transient analysis `tran', during Monte Carlo analysis `mc1'.
    Multithreading is disabled due to the size of the design being too small.


Output and IC/nodeset summary:
                 save   5       (current)
                 save   17      (voltage)

    tran: time = 509.1 ps    (2.55 %), step = 26.25 ps     (131 m%)
SOAC: I4.MND.soac_m1       modn V(B,PSUB): LEAVING@  0us ;
SOAC: I4.MND.soac_m1       modn V(B,PSUB): ENTERING@ 0.00117611us duration:0.00118us ;
    tran: time = 1.513 ns    (7.57 %), step = 18.07 ps    (90.3 m%)
    tran: time = 2.526 ns    (12.6 %), step = 27.43 ps     (137 m%)
    tran: time = 3.517 ns    (17.6 %), step = 25.42 ps     (127 m%)
SOAC: I4.MND.soac_m1       modn V(B,PSUB): LEAVING@  0.00310073us ;
    tran: time = 4.507 ns    (22.5 %), step = 48.63 ps     (243 m%)
SOAC: I4.MND.soac_m1       modn V(B,PSUB): ENTERING@ 0.0050251us duration:0.00192us ;
    tran: time = 5.502 ns    (27.5 %), step = 44.11 ps     (221 m%)
    tran: time = 6.508 ns    (32.5 %), step = 10.27 ps    (51.4 m%)
    tran: time = 7.523 ns    (37.6 %), step = 26 ps        (130 m%)
SOAC: I4.MND.soac_m1       modn V(B,PSUB): LEAVING@  0.00710072us ;
    tran: time = 8.508 ns    (42.5 %), step = 48.68 ps     (243 m%)
SOAC: I4.MND.soac_m1       modn V(B,PSUB): ENTERING@ 0.0090427us duration:0.00194us ;
    tran: time = 9.51 ns     (47.5 %), step = 33.26 ps     (166 m%)
    tran: time = 10.51 ns    (52.6 %), step = 24.01 ps     (120 m%)
    tran: time = 11.51 ns    (57.6 %), step = 15.88 ps    (79.4 m%)
    tran: time = 12.52 ns    (62.6 %), step = 61.72 ps     (309 m%)
SOAC: I4.MND.soac_m1       modn V(B,PSUB): LEAVING@  0.0120277us ;
SOAC: I4.MND.soac_m1       modn V(B,PSUB): ENTERING@ 0.0131118us duration:0.00108us ;
    tran: time = 13.54 ns    (67.7 %), step = 46.03 ps     (230 m%)
    tran: time = 14.52 ns    (72.6 %), step = 34.54 ps     (173 m%)
    tran: time = 15.51 ns    (77.5 %), step = 12.03 ps    (60.1 m%)
SOAC: I4.MND.soac_m1       modn V(B,PSUB): LEAVING@  0.0150041us ;
    tran: time = 16.51 ns    (82.6 %), step = 30.75 ps     (154 m%)
SOAC: I4.MND.soac_m1       modn V(B,PSUB): ENTERING@ 0.0171288us duration:0.00212us ;
    tran: time = 17.51 ns    (87.5 %), step = 64.26 ps     (321 m%)
    tran: time = 18.52 ns    (92.6 %), step = 34.53 ps     (173 m%)
    tran: time = 19.51 ns    (97.5 %), step = 27.81 ps     (139 m%)
Number of accepted tran steps =             2734

Maximum value achieved for any signal of each quantity: 
V: V(I4.net1) = 3.735 V
I: I(V:p) = 712.1 uA

~~~~~~~~~~~~~~~~~~~~~~~~~~~~~~~~~
Post-Transient Simulation Summary
~~~~~~~~~~~~~~~~~~~~~~~~~~~~~~~~~
   -   To further speed up simulation, consider
          add ++aps on command line
   -   Non-default settings that could significantly slow down simulation
          errpreset = conservative, default moderate
          reltol = 10e-06, default 100e-06 (conservative)
~~~~~~~~~~~~~~~~~~~~~~~~~~~~~~~~~


During simulation, the CPU load for active processors is :
         0 (5.2 %)       2 (1.3 %)       3 (3.2 %)       4 (22.9 %)
         5 (1.9 %)       6 (7.1 %)       7 (35.3 %)      8 (1.3 %)
         9 (1.3 %)      10 (1.3 %)      11 (5.2 %)      
        Total: 86.5%
Initial condition solution time: CPU = 340 us, elapsed = 341.177 us.
Intrinsic tran analysis time:    CPU = 249.635 ms, elapsed = 258.165 ms.
Total time required for tran analysis `tran': CPU = 251.543 ms, elapsed = 268.51 ms, util. = 93.7%.
Time accumulated: CPU = 993.69 ms, elapsed = 1.59293 s.
Peak resident memory used = 197 Mbytes.

finalTimeOP: writing operating point information to rawfile.

Opening the PSF file ../psf/mc1_separate/002/finalTimeOP.info ...
modelParameter: writing model parameter values to rawfile.

Opening the PSF file ../psf/mc1_separate/002/modelParameter.info ...
element: writing instance parameter values to rawfile.

Opening the PSF file ../psf/mc1_separate/002/element.info ...
outputParameter: writing output parameter values to rawfile.

Opening the PSF file ../psf/mc1_separate/002/outputParameter.info ...
designParamVals: writing netlist parameters to rawfile.

Opening the PSFASCII file ../psf/mc1_separate/002/designParamVals.info ...
primitives: writing primitives to rawfile.

Opening the PSFASCII file ../psf/mc1_separate/002/primitives.info.primitives ...
subckts: writing subcircuits to rawfile.

Opening the PSFASCII file ../psf/mc1_separate/002/subckts.info.subckts ...
3              2.02% 

************************************************
Transient Analysis `tran': time = (0 s -> 20 ns)
************************************************

Opening the PSF file ../psf/mc1_separate/003/tran.tran.tran ...

Notice from spectre during IC analysis, during transient analysis `tran', during Monte Carlo analysis `mc1'.
    GminDC = 1 pS is large enough to noticeably affect the DC solution.
        dV(I4.net2) = 101.841 mV
        Use the `gmin_check' option to eliminate or expand this report.
Warning from spectre during check, during IC analysis, during transient analysis `tran', during Monte Carlo analysis `mc1'.
    WARNING (CMI-2943): Parameter checks have been ignored because the valid value for parameter 'trise' could not be found in 'C0'.

DC simulation time: CPU = 368 us, elapsed = 371.933 us.
Important parameter values:
    start = 0 s
    outputstart = 0 s
    stop = 20 ns
    step = 20 ps
    maxstep = 200 ps
    ic = all
    useprevic = no
    skipdc = no
    reltol = 10e-06
    abstol(V) = 1 uV
    abstol(I) = 1 pA
    temp = 27 C
    tnom = 27 C
    tempeffects = all
    errpreset = conservative
    method = gear2only
    lteratio = 10
    relref = alllocal
    cmin = 0 F
    gmin = 1 pS
    rabsshort = 1 mOhm


Notice from spectre during transient analysis `tran', during Monte Carlo analysis `mc1'.
    Multithreading is disabled due to the size of the design being too small.


Output and IC/nodeset summary:
                 save   5       (current)
                 save   17      (voltage)

    tran: time = 509.1 ps    (2.55 %), step = 26.25 ps     (131 m%)
SOAC: I4.MND.soac_m1       modn V(B,PSUB): LEAVING@  0us ;
SOAC: I4.MND.soac_m1       modn V(B,PSUB): ENTERING@ 0.00117611us duration:0.00118us ;
    tran: time = 1.513 ns    (7.57 %), step = 18.07 ps    (90.3 m%)
    tran: time = 2.526 ns    (12.6 %), step = 27.43 ps     (137 m%)
    tran: time = 3.517 ns    (17.6 %), step = 25.42 ps     (127 m%)
SOAC: I4.MND.soac_m1       modn V(B,PSUB): LEAVING@  0.00310073us ;
    tran: time = 4.507 ns    (22.5 %), step = 48.63 ps     (243 m%)
SOAC: I4.MND.soac_m1       modn V(B,PSUB): ENTERING@ 0.0050251us duration:0.00192us ;
    tran: time = 5.502 ns    (27.5 %), step = 44.11 ps     (221 m%)
    tran: time = 6.508 ns    (32.5 %), step = 10.27 ps    (51.4 m%)
    tran: time = 7.523 ns    (37.6 %), step = 26 ps        (130 m%)
SOAC: I4.MND.soac_m1       modn V(B,PSUB): LEAVING@  0.00710072us ;
    tran: time = 8.508 ns    (42.5 %), step = 48.68 ps     (243 m%)
SOAC: I4.MND.soac_m1       modn V(B,PSUB): ENTERING@ 0.0090427us duration:0.00194us ;
    tran: time = 9.51 ns     (47.5 %), step = 33.26 ps     (166 m%)
    tran: time = 10.51 ns    (52.6 %), step = 24.01 ps     (120 m%)
    tran: time = 11.51 ns    (57.6 %), step = 15.88 ps    (79.4 m%)
    tran: time = 12.52 ns    (62.6 %), step = 61.72 ps     (309 m%)
SOAC: I4.MND.soac_m1       modn V(B,PSUB): LEAVING@  0.0120277us ;
SOAC: I4.MND.soac_m1       modn V(B,PSUB): ENTERING@ 0.0131118us duration:0.00108us ;
    tran: time = 13.54 ns    (67.7 %), step = 46.03 ps     (230 m%)
    tran: time = 14.52 ns    (72.6 %), step = 34.54 ps     (173 m%)
    tran: time = 15.51 ns    (77.5 %), step = 12.03 ps    (60.1 m%)
SOAC: I4.MND.soac_m1       modn V(B,PSUB): LEAVING@  0.0150041us ;
    tran: time = 16.51 ns    (82.6 %), step = 30.75 ps     (154 m%)
SOAC: I4.MND.soac_m1       modn V(B,PSUB): ENTERING@ 0.0171288us duration:0.00212us ;
    tran: time = 17.51 ns    (87.5 %), step = 64.26 ps     (321 m%)
    tran: time = 18.52 ns    (92.6 %), step = 34.53 ps     (173 m%)
    tran: time = 19.51 ns    (97.5 %), step = 27.81 ps     (139 m%)
Number of accepted tran steps =             2734

Maximum value achieved for any signal of each quantity: 
V: V(I4.net1) = 3.735 V
I: I(V:p) = 712.1 uA

~~~~~~~~~~~~~~~~~~~~~~~~~~~~~~~~~
Post-Transient Simulation Summary
~~~~~~~~~~~~~~~~~~~~~~~~~~~~~~~~~
   -   To further speed up simulation, consider
          add ++aps on command line
   -   Non-default settings that could significantly slow down simulation
          errpreset = conservative, default moderate
          reltol = 10e-06, default 100e-06 (conservative)
~~~~~~~~~~~~~~~~~~~~~~~~~~~~~~~~~


During simulation, the CPU load for active processors is :
         0 (5.8 %)       1 (1.1 %)       2 (1.6 %)       3 (3.1 %)
         4 (20.9 %)      5 (2.1 %)       6 (5.8 %)       7 (44.2 %)
         8 (1.1 %)       9 (1.1 %)      10 (1.6 %)      11 (4.8 %)
        Total: 93.2%
Initial condition solution time: CPU = 384 us, elapsed = 388.145 us.
Intrinsic tran analysis time:    CPU = 275.907 ms, elapsed = 285.397 ms.
Total time required for tran analysis `tran': CPU = 277.71 ms, elapsed = 294.194 ms, util. = 94.4%.
Time accumulated: CPU = 1.28547 s, elapsed = 1.93192 s.
Peak resident memory used = 197 Mbytes.

finalTimeOP: writing operating point information to rawfile.

Opening the PSF file ../psf/mc1_separate/003/finalTimeOP.info ...
modelParameter: writing model parameter values to rawfile.

Opening the PSF file ../psf/mc1_separate/003/modelParameter.info ...
element: writing instance parameter values to rawfile.

Opening the PSF file ../psf/mc1_separate/003/element.info ...
outputParameter: writing output parameter values to rawfile.

Opening the PSF file ../psf/mc1_separate/003/outputParameter.info ...
designParamVals: writing netlist parameters to rawfile.

Opening the PSFASCII file ../psf/mc1_separate/003/designParamVals.info ...
primitives: writing primitives to rawfile.

Opening the PSFASCII file ../psf/mc1_separate/003/primitives.info.primitives ...
subckts: writing subcircuits to rawfile.

Opening the PSFASCII file ../psf/mc1_separate/003/subckts.info.subckts ...
4              3.03% 

************************************************
Transient Analysis `tran': time = (0 s -> 20 ns)
************************************************

Opening the PSF file ../psf/mc1_separate/004/tran.tran.tran ...

Notice from spectre during IC analysis, during transient analysis `tran', during Monte Carlo analysis `mc1'.
    GminDC = 1 pS is large enough to noticeably affect the DC solution.
        dV(I4.net2) = 101.841 mV
        Use the `gmin_check' option to eliminate or expand this report.
Warning from spectre during check, during IC analysis, during transient analysis `tran', during Monte Carlo analysis `mc1'.
    WARNING (CMI-2943): Parameter checks have been ignored because the valid value for parameter 'trise' could not be found in 'C0'.

DC simulation time: CPU = 370 us, elapsed = 374.079 us.
Important parameter values:
    start = 0 s
    outputstart = 0 s
    stop = 20 ns
    step = 20 ps
    maxstep = 200 ps
    ic = all
    useprevic = no
    skipdc = no
    reltol = 10e-06
    abstol(V) = 1 uV
    abstol(I) = 1 pA
    temp = 27 C
    tnom = 27 C
    tempeffects = all
    errpreset = conservative
    method = gear2only
    lteratio = 10
    relref = alllocal
    cmin = 0 F
    gmin = 1 pS
    rabsshort = 1 mOhm


Notice from spectre during transient analysis `tran', during Monte Carlo analysis `mc1'.
    Multithreading is disabled due to the size of the design being too small.


Output and IC/nodeset summary:
                 save   5       (current)
                 save   17      (voltage)

    tran: time = 509.1 ps    (2.55 %), step = 26.25 ps     (131 m%)
SOAC: I4.MND.soac_m1       modn V(B,PSUB): LEAVING@  0us ;
SOAC: I4.MND.soac_m1       modn V(B,PSUB): ENTERING@ 0.00117611us duration:0.00118us ;
    tran: time = 1.513 ns    (7.57 %), step = 18.07 ps    (90.3 m%)
    tran: time = 2.526 ns    (12.6 %), step = 27.43 ps     (137 m%)
    tran: time = 3.517 ns    (17.6 %), step = 25.42 ps     (127 m%)
SOAC: I4.MND.soac_m1       modn V(B,PSUB): LEAVING@  0.00310073us ;
    tran: time = 4.507 ns    (22.5 %), step = 48.63 ps     (243 m%)
SOAC: I4.MND.soac_m1       modn V(B,PSUB): ENTERING@ 0.0050251us duration:0.00192us ;
    tran: time = 5.502 ns    (27.5 %), step = 44.11 ps     (221 m%)
    tran: time = 6.508 ns    (32.5 %), step = 10.27 ps    (51.4 m%)
    tran: time = 7.523 ns    (37.6 %), step = 26 ps        (130 m%)
SOAC: I4.MND.soac_m1       modn V(B,PSUB): LEAVING@  0.00710072us ;
    tran: time = 8.508 ns    (42.5 %), step = 48.68 ps     (243 m%)
SOAC: I4.MND.soac_m1       modn V(B,PSUB): ENTERING@ 0.0090427us duration:0.00194us ;
    tran: time = 9.51 ns     (47.5 %), step = 33.26 ps     (166 m%)
    tran: time = 10.51 ns    (52.6 %), step = 24.01 ps     (120 m%)
    tran: time = 11.51 ns    (57.6 %), step = 15.88 ps    (79.4 m%)
    tran: time = 12.52 ns    (62.6 %), step = 61.72 ps     (309 m%)
SOAC: I4.MND.soac_m1       modn V(B,PSUB): LEAVING@  0.0120277us ;
SOAC: I4.MND.soac_m1       modn V(B,PSUB): ENTERING@ 0.0131118us duration:0.00108us ;
    tran: time = 13.54 ns    (67.7 %), step = 46.03 ps     (230 m%)
    tran: time = 14.52 ns    (72.6 %), step = 34.54 ps     (173 m%)
    tran: time = 15.51 ns    (77.5 %), step = 12.03 ps    (60.1 m%)
SOAC: I4.MND.soac_m1       modn V(B,PSUB): LEAVING@  0.0150041us ;
    tran: time = 16.51 ns    (82.6 %), step = 30.75 ps     (154 m%)
SOAC: I4.MND.soac_m1       modn V(B,PSUB): ENTERING@ 0.0171288us duration:0.00212us ;
    tran: time = 17.51 ns    (87.5 %), step = 64.26 ps     (321 m%)
    tran: time = 18.52 ns    (92.6 %), step = 34.53 ps     (173 m%)
    tran: time = 19.51 ns    (97.5 %), step = 27.81 ps     (139 m%)
Number of accepted tran steps =             2734

Maximum value achieved for any signal of each quantity: 
V: V(I4.net1) = 3.735 V
I: I(V:p) = 712.1 uA

~~~~~~~~~~~~~~~~~~~~~~~~~~~~~~~~~
Post-Transient Simulation Summary
~~~~~~~~~~~~~~~~~~~~~~~~~~~~~~~~~
   -   To further speed up simulation, consider
          add ++aps on command line
   -   Non-default settings that could significantly slow down simulation
          errpreset = conservative, default moderate
          reltol = 10e-06, default 100e-06 (conservative)
~~~~~~~~~~~~~~~~~~~~~~~~~~~~~~~~~


During simulation, the CPU load for active processors is :
         0 (5.9 %)       1 (2.2 %)       2 (6.3 %)       3 (3.1 %)
         4 (22.9 %)      5 (2.2 %)       6 (5.4 %)       7 (50.9 %)
         8 (1.8 %)       9 (2.7 %)      10 (3.6 %)      11 (5.4 %)
        Total: 112.5%
Initial condition solution time: CPU = 388 us, elapsed = 391.96 us.
Intrinsic tran analysis time:    CPU = 273.682 ms, elapsed = 280.355 ms.
Total time required for tran analysis `tran': CPU = 275.271 ms, elapsed = 288.506 ms, util. = 95.4%.
Time accumulated: CPU = 1.57295 s, elapsed = 2.25853 s.
Peak resident memory used = 197 Mbytes.

finalTimeOP: writing operating point information to rawfile.

Opening the PSF file ../psf/mc1_separate/004/finalTimeOP.info ...
modelParameter: writing model parameter values to rawfile.

Opening the PSF file ../psf/mc1_separate/004/modelParameter.info ...
element: writing instance parameter values to rawfile.

Opening the PSF file ../psf/mc1_separate/004/element.info ...
outputParameter: writing output parameter values to rawfile.

Opening the PSF file ../psf/mc1_separate/004/outputParameter.info ...
designParamVals: writing netlist parameters to rawfile.

Opening the PSFASCII file ../psf/mc1_separate/004/designParamVals.info ...
primitives: writing primitives to rawfile.

Opening the PSFASCII file ../psf/mc1_separate/004/primitives.info.primitives ...
subckts: writing subcircuits to rawfile.

Opening the PSFASCII file ../psf/mc1_separate/004/subckts.info.subckts ...
    mc1: iteration = 4           (3.03 %), step = 1            (1.01 %)
5              4.04% 

************************************************
Transient Analysis `tran': time = (0 s -> 20 ns)
************************************************

Opening the PSF file ../psf/mc1_separate/005/tran.tran.tran ...

Notice from spectre during IC analysis, during transient analysis `tran', during Monte Carlo analysis `mc1'.
    GminDC = 1 pS is large enough to noticeably affect the DC solution.
        dV(I4.net2) = 101.841 mV
        Use the `gmin_check' option to eliminate or expand this report.
Warning from spectre during check, during IC analysis, during transient analysis `tran', during Monte Carlo analysis `mc1'.
    WARNING (CMI-2943): Parameter checks have been ignored because the valid value for parameter 'trise' could not be found in 'C0'.

DC simulation time: CPU = 350 us, elapsed = 349.998 us.
Important parameter values:
    start = 0 s
    outputstart = 0 s
    stop = 20 ns
    step = 20 ps
    maxstep = 200 ps
    ic = all
    useprevic = no
    skipdc = no
    reltol = 10e-06
    abstol(V) = 1 uV
    abstol(I) = 1 pA
    temp = 27 C
    tnom = 27 C
    tempeffects = all
    errpreset = conservative
    method = gear2only
    lteratio = 10
    relref = alllocal
    cmin = 0 F
    gmin = 1 pS
    rabsshort = 1 mOhm


Notice from spectre during transient analysis `tran', during Monte Carlo analysis `mc1'.
    Multithreading is disabled due to the size of the design being too small.


Output and IC/nodeset summary:
                 save   5       (current)
                 save   17      (voltage)

    tran: time = 509.1 ps    (2.55 %), step = 26.25 ps     (131 m%)
SOAC: I4.MND.soac_m1       modn V(B,PSUB): LEAVING@  0us ;
SOAC: I4.MND.soac_m1       modn V(B,PSUB): ENTERING@ 0.00117611us duration:0.00118us ;
    tran: time = 1.513 ns    (7.57 %), step = 18.07 ps    (90.3 m%)
    tran: time = 2.526 ns    (12.6 %), step = 27.43 ps     (137 m%)
    tran: time = 3.517 ns    (17.6 %), step = 25.42 ps     (127 m%)
SOAC: I4.MND.soac_m1       modn V(B,PSUB): LEAVING@  0.00310073us ;
    tran: time = 4.507 ns    (22.5 %), step = 48.63 ps     (243 m%)
SOAC: I4.MND.soac_m1       modn V(B,PSUB): ENTERING@ 0.0050251us duration:0.00192us ;
    tran: time = 5.502 ns    (27.5 %), step = 44.11 ps     (221 m%)
    tran: time = 6.508 ns    (32.5 %), step = 10.27 ps    (51.4 m%)
    tran: time = 7.523 ns    (37.6 %), step = 26 ps        (130 m%)
SOAC: I4.MND.soac_m1       modn V(B,PSUB): LEAVING@  0.00710072us ;
    tran: time = 8.508 ns    (42.5 %), step = 48.68 ps     (243 m%)
SOAC: I4.MND.soac_m1       modn V(B,PSUB): ENTERING@ 0.0090427us duration:0.00194us ;
    tran: time = 9.51 ns     (47.5 %), step = 33.26 ps     (166 m%)
    tran: time = 10.51 ns    (52.6 %), step = 24.01 ps     (120 m%)
    tran: time = 11.51 ns    (57.6 %), step = 15.88 ps    (79.4 m%)
    tran: time = 12.52 ns    (62.6 %), step = 61.72 ps     (309 m%)
SOAC: I4.MND.soac_m1       modn V(B,PSUB): LEAVING@  0.0120277us ;
SOAC: I4.MND.soac_m1       modn V(B,PSUB): ENTERING@ 0.0131118us duration:0.00108us ;
    tran: time = 13.54 ns    (67.7 %), step = 46.03 ps     (230 m%)
    tran: time = 14.52 ns    (72.6 %), step = 34.54 ps     (173 m%)
    tran: time = 15.51 ns    (77.5 %), step = 12.03 ps    (60.1 m%)
SOAC: I4.MND.soac_m1       modn V(B,PSUB): LEAVING@  0.0150041us ;
    tran: time = 16.51 ns    (82.6 %), step = 30.75 ps     (154 m%)
SOAC: I4.MND.soac_m1       modn V(B,PSUB): ENTERING@ 0.0171288us duration:0.00212us ;
    tran: time = 17.51 ns    (87.5 %), step = 64.26 ps     (321 m%)
    tran: time = 18.52 ns    (92.6 %), step = 34.53 ps     (173 m%)
    tran: time = 19.51 ns    (97.5 %), step = 27.81 ps     (139 m%)
Number of accepted tran steps =             2734

Maximum value achieved for any signal of each quantity: 
V: V(I4.net1) = 3.735 V
I: I(V:p) = 712.1 uA

~~~~~~~~~~~~~~~~~~~~~~~~~~~~~~~~~
Post-Transient Simulation Summary
~~~~~~~~~~~~~~~~~~~~~~~~~~~~~~~~~
   -   To further speed up simulation, consider
          add ++aps on command line
   -   Non-default settings that could significantly slow down simulation
          errpreset = conservative, default moderate
          reltol = 10e-06, default 100e-06 (conservative)
~~~~~~~~~~~~~~~~~~~~~~~~~~~~~~~~~


During simulation, the CPU load for active processors is :
         0 (10.6 %)      1 (2.4 %)       2 (5.9 %)       3 (3.1 %)
         4 (20.0 %)      5 (2.4 %)       6 (6.7 %)       7 (55.7 %)
         8 (2.0 %)       9 (2.4 %)      10 (5.1 %)      11 (4.8 %)
        Total: 120.9%
Initial condition solution time: CPU = 367 us, elapsed = 368.834 us.
Intrinsic tran analysis time:    CPU = 268.494 ms, elapsed = 275.301 ms.
Total time required for tran analysis `tran': CPU = 270.114 ms, elapsed = 283.58 ms, util. = 95.3%.
Time accumulated: CPU = 1.85552 s, elapsed = 2.57964 s.
Peak resident memory used = 197 Mbytes.

finalTimeOP: writing operating point information to rawfile.

Opening the PSF file ../psf/mc1_separate/005/finalTimeOP.info ...
modelParameter: writing model parameter values to rawfile.

Opening the PSF file ../psf/mc1_separate/005/modelParameter.info ...
element: writing instance parameter values to rawfile.

Opening the PSF file ../psf/mc1_separate/005/element.info ...
outputParameter: writing output parameter values to rawfile.

Opening the PSF file ../psf/mc1_separate/005/outputParameter.info ...
designParamVals: writing netlist parameters to rawfile.

Opening the PSFASCII file ../psf/mc1_separate/005/designParamVals.info ...
primitives: writing primitives to rawfile.

Opening the PSFASCII file ../psf/mc1_separate/005/primitives.info.primitives ...
subckts: writing subcircuits to rawfile.

Opening the PSFASCII file ../psf/mc1_separate/005/subckts.info.subckts ...
    mc1: iteration = 5           (4.04 %), step = 1            (1.01 %)
6              5.05% 

************************************************
Transient Analysis `tran': time = (0 s -> 20 ns)
************************************************

Opening the PSF file ../psf/mc1_separate/006/tran.tran.tran ...

Notice from spectre during IC analysis, during transient analysis `tran', during Monte Carlo analysis `mc1'.
    GminDC = 1 pS is large enough to noticeably affect the DC solution.
        dV(I4.net2) = 101.841 mV
        Use the `gmin_check' option to eliminate or expand this report.
Warning from spectre during check, during IC analysis, during transient analysis `tran', during Monte Carlo analysis `mc1'.
    WARNING (CMI-2943): Parameter checks have been ignored because the valid value for parameter 'trise' could not be found in 'C0'.

DC simulation time: CPU = 374 us, elapsed = 372.887 us.
Important parameter values:
    start = 0 s
    outputstart = 0 s
    stop = 20 ns
    step = 20 ps
    maxstep = 200 ps
    ic = all
    useprevic = no
    skipdc = no
    reltol = 10e-06
    abstol(V) = 1 uV
    abstol(I) = 1 pA
    temp = 27 C
    tnom = 27 C
    tempeffects = all
    errpreset = conservative
    method = gear2only
    lteratio = 10
    relref = alllocal
    cmin = 0 F
    gmin = 1 pS
    rabsshort = 1 mOhm


Notice from spectre during transient analysis `tran', during Monte Carlo analysis `mc1'.
    Multithreading is disabled due to the size of the design being too small.


Output and IC/nodeset summary:
                 save   5       (current)
                 save   17      (voltage)

    tran: time = 509.1 ps    (2.55 %), step = 26.25 ps     (131 m%)
SOAC: I4.MND.soac_m1       modn V(B,PSUB): LEAVING@  0us ;
SOAC: I4.MND.soac_m1       modn V(B,PSUB): ENTERING@ 0.00117611us duration:0.00118us ;
    tran: time = 1.513 ns    (7.57 %), step = 18.07 ps    (90.3 m%)
    tran: time = 2.526 ns    (12.6 %), step = 27.43 ps     (137 m%)
    tran: time = 3.517 ns    (17.6 %), step = 25.42 ps     (127 m%)
SOAC: I4.MND.soac_m1       modn V(B,PSUB): LEAVING@  0.00310073us ;
    tran: time = 4.507 ns    (22.5 %), step = 48.63 ps     (243 m%)
SOAC: I4.MND.soac_m1       modn V(B,PSUB): ENTERING@ 0.0050251us duration:0.00192us ;
    tran: time = 5.502 ns    (27.5 %), step = 44.11 ps     (221 m%)
    tran: time = 6.508 ns    (32.5 %), step = 10.27 ps    (51.4 m%)
    tran: time = 7.523 ns    (37.6 %), step = 26 ps        (130 m%)
SOAC: I4.MND.soac_m1       modn V(B,PSUB): LEAVING@  0.00710072us ;
    tran: time = 8.508 ns    (42.5 %), step = 48.68 ps     (243 m%)
SOAC: I4.MND.soac_m1       modn V(B,PSUB): ENTERING@ 0.0090427us duration:0.00194us ;
    tran: time = 9.51 ns     (47.5 %), step = 33.26 ps     (166 m%)
    tran: time = 10.51 ns    (52.6 %), step = 24.01 ps     (120 m%)
    tran: time = 11.51 ns    (57.6 %), step = 15.88 ps    (79.4 m%)
    tran: time = 12.52 ns    (62.6 %), step = 61.72 ps     (309 m%)
SOAC: I4.MND.soac_m1       modn V(B,PSUB): LEAVING@  0.0120277us ;
SOAC: I4.MND.soac_m1       modn V(B,PSUB): ENTERING@ 0.0131118us duration:0.00108us ;
    tran: time = 13.54 ns    (67.7 %), step = 46.03 ps     (230 m%)
    tran: time = 14.52 ns    (72.6 %), step = 34.54 ps     (173 m%)
    tran: time = 15.51 ns    (77.5 %), step = 12.03 ps    (60.1 m%)
SOAC: I4.MND.soac_m1       modn V(B,PSUB): LEAVING@  0.0150041us ;
    tran: time = 16.51 ns    (82.6 %), step = 30.75 ps     (154 m%)
SOAC: I4.MND.soac_m1       modn V(B,PSUB): ENTERING@ 0.0171288us duration:0.00212us ;
    tran: time = 17.51 ns    (87.5 %), step = 64.26 ps     (321 m%)
    tran: time = 18.52 ns    (92.6 %), step = 34.53 ps     (173 m%)
    tran: time = 19.51 ns    (97.5 %), step = 27.81 ps     (139 m%)
Number of accepted tran steps =             2734

Maximum value achieved for any signal of each quantity: 
V: V(I4.net1) = 3.735 V
I: I(V:p) = 712.1 uA

~~~~~~~~~~~~~~~~~~~~~~~~~~~~~~~~~
Post-Transient Simulation Summary
~~~~~~~~~~~~~~~~~~~~~~~~~~~~~~~~~
   -   To further speed up simulation, consider
          add ++aps on command line
   -   Non-default settings that could significantly slow down simulation
          errpreset = conservative, default moderate
          reltol = 10e-06, default 100e-06 (conservative)
~~~~~~~~~~~~~~~~~~~~~~~~~~~~~~~~~


During simulation, the CPU load for active processors is :
         0 (10.1 %)      1 (2.8 %)       2 (5.9 %)       3 (3.5 %)
         4 (18.1 %)      5 (4.2 %)       6 (6.2 %)       7 (59.2 %)
         8 (2.1 %)       9 (2.4 %)      10 (9.1 %)      11 (5.6 %)
        Total: 129.3%
Initial condition solution time: CPU = 392 us, elapsed = 393.867 us.
Intrinsic tran analysis time:    CPU = 269.332 ms, elapsed = 275.708 ms.
Total time required for tran analysis `tran': CPU = 271.01 ms, elapsed = 283.592 ms, util. = 95.6%.
Time accumulated: CPU = 2.14066 s, elapsed = 2.90369 s.
Peak resident memory used = 197 Mbytes.

finalTimeOP: writing operating point information to rawfile.

Opening the PSF file ../psf/mc1_separate/006/finalTimeOP.info ...
modelParameter: writing model parameter values to rawfile.

Opening the PSF file ../psf/mc1_separate/006/modelParameter.info ...
element: writing instance parameter values to rawfile.

Opening the PSF file ../psf/mc1_separate/006/element.info ...
outputParameter: writing output parameter values to rawfile.

Opening the PSF file ../psf/mc1_separate/006/outputParameter.info ...
designParamVals: writing netlist parameters to rawfile.

Opening the PSFASCII file ../psf/mc1_separate/006/designParamVals.info ...
primitives: writing primitives to rawfile.

Opening the PSFASCII file ../psf/mc1_separate/006/primitives.info.primitives ...
subckts: writing subcircuits to rawfile.

Opening the PSFASCII file ../psf/mc1_separate/006/subckts.info.subckts ...
    mc1: iteration = 6           (5.05 %), step = 1            (1.01 %)
7              6.06% 

************************************************
Transient Analysis `tran': time = (0 s -> 20 ns)
************************************************

Opening the PSF file ../psf/mc1_separate/007/tran.tran.tran ...

Notice from spectre during IC analysis, during transient analysis `tran', during Monte Carlo analysis `mc1'.
    GminDC = 1 pS is large enough to noticeably affect the DC solution.
        dV(I4.net2) = 101.841 mV
        Use the `gmin_check' option to eliminate or expand this report.
Warning from spectre during check, during IC analysis, during transient analysis `tran', during Monte Carlo analysis `mc1'.
    WARNING (CMI-2943): Parameter checks have been ignored because the valid value for parameter 'trise' could not be found in 'C0'.

DC simulation time: CPU = 567 us, elapsed = 571.012 us.
Important parameter values:
    start = 0 s
    outputstart = 0 s
    stop = 20 ns
    step = 20 ps
    maxstep = 200 ps
    ic = all
    useprevic = no
    skipdc = no
    reltol = 10e-06
    abstol(V) = 1 uV
    abstol(I) = 1 pA
    temp = 27 C
    tnom = 27 C
    tempeffects = all
    errpreset = conservative
    method = gear2only
    lteratio = 10
    relref = alllocal
    cmin = 0 F
    gmin = 1 pS
    rabsshort = 1 mOhm


Notice from spectre during transient analysis `tran', during Monte Carlo analysis `mc1'.
    Multithreading is disabled due to the size of the design being too small.


Output and IC/nodeset summary:
                 save   5       (current)
                 save   17      (voltage)

    tran: time = 509.1 ps    (2.55 %), step = 26.25 ps     (131 m%)
SOAC: I4.MND.soac_m1       modn V(B,PSUB): LEAVING@  0us ;
SOAC: I4.MND.soac_m1       modn V(B,PSUB): ENTERING@ 0.00117611us duration:0.00118us ;
    tran: time = 1.513 ns    (7.57 %), step = 18.07 ps    (90.3 m%)
    tran: time = 2.526 ns    (12.6 %), step = 27.43 ps     (137 m%)
    tran: time = 3.517 ns    (17.6 %), step = 25.42 ps     (127 m%)
SOAC: I4.MND.soac_m1       modn V(B,PSUB): LEAVING@  0.00310073us ;
    tran: time = 4.507 ns    (22.5 %), step = 48.63 ps     (243 m%)
SOAC: I4.MND.soac_m1       modn V(B,PSUB): ENTERING@ 0.0050251us duration:0.00192us ;
    tran: time = 5.502 ns    (27.5 %), step = 44.11 ps     (221 m%)
    tran: time = 6.508 ns    (32.5 %), step = 10.27 ps    (51.4 m%)
    tran: time = 7.523 ns    (37.6 %), step = 26 ps        (130 m%)
SOAC: I4.MND.soac_m1       modn V(B,PSUB): LEAVING@  0.00710072us ;
    tran: time = 8.508 ns    (42.5 %), step = 48.68 ps     (243 m%)
SOAC: I4.MND.soac_m1       modn V(B,PSUB): ENTERING@ 0.0090427us duration:0.00194us ;
    tran: time = 9.51 ns     (47.5 %), step = 33.26 ps     (166 m%)
    tran: time = 10.51 ns    (52.6 %), step = 24.01 ps     (120 m%)
    tran: time = 11.51 ns    (57.6 %), step = 15.88 ps    (79.4 m%)
    tran: time = 12.52 ns    (62.6 %), step = 61.72 ps     (309 m%)
SOAC: I4.MND.soac_m1       modn V(B,PSUB): LEAVING@  0.0120277us ;
SOAC: I4.MND.soac_m1       modn V(B,PSUB): ENTERING@ 0.0131118us duration:0.00108us ;
    tran: time = 13.54 ns    (67.7 %), step = 46.03 ps     (230 m%)
    tran: time = 14.52 ns    (72.6 %), step = 34.54 ps     (173 m%)
    tran: time = 15.51 ns    (77.5 %), step = 12.03 ps    (60.1 m%)
SOAC: I4.MND.soac_m1       modn V(B,PSUB): LEAVING@  0.0150041us ;
    tran: time = 16.51 ns    (82.6 %), step = 30.75 ps     (154 m%)
SOAC: I4.MND.soac_m1       modn V(B,PSUB): ENTERING@ 0.0171288us duration:0.00212us ;
    tran: time = 17.51 ns    (87.5 %), step = 64.26 ps     (321 m%)
    tran: time = 18.52 ns    (92.6 %), step = 34.53 ps     (173 m%)
    tran: time = 19.51 ns    (97.5 %), step = 27.81 ps     (139 m%)
Number of accepted tran steps =             2734

Maximum value achieved for any signal of each quantity: 
V: V(I4.net1) = 3.735 V
I: I(V:p) = 712.1 uA

~~~~~~~~~~~~~~~~~~~~~~~~~~~~~~~~~
Post-Transient Simulation Summary
~~~~~~~~~~~~~~~~~~~~~~~~~~~~~~~~~
   -   To further speed up simulation, consider
          add ++aps on command line
   -   Non-default settings that could significantly slow down simulation
          errpreset = conservative, default moderate
          reltol = 10e-06, default 100e-06 (conservative)
~~~~~~~~~~~~~~~~~~~~~~~~~~~~~~~~~


During simulation, the CPU load for active processors is :
         0 (11.1 %)      1 (4.9 %)       2 (8.4 %)       3 (12.7 %)
         4 (20.5 %)      5 (7.4 %)       6 (8.0 %)       7 (57.3 %)
         8 (4.7 %)       9 (3.7 %)      10 (10.9 %)     11 (8.1 %)
        Total: 157.7%
Initial condition solution time: CPU = 596 us, elapsed = 601.768 us.
Intrinsic tran analysis time:    CPU = 302.804 ms, elapsed = 309.473 ms.
Total time required for tran analysis `tran': CPU = 305.202 ms, elapsed = 318.852 ms, util. = 95.7%.
Time accumulated: CPU = 2.46283 s, elapsed = 3.26345 s.
Peak resident memory used = 197 Mbytes.

finalTimeOP: writing operating point information to rawfile.

Opening the PSF file ../psf/mc1_separate/007/finalTimeOP.info ...
modelParameter: writing model parameter values to rawfile.

Opening the PSF file ../psf/mc1_separate/007/modelParameter.info ...
element: writing instance parameter values to rawfile.

Opening the PSF file ../psf/mc1_separate/007/element.info ...
outputParameter: writing output parameter values to rawfile.

Opening the PSF file ../psf/mc1_separate/007/outputParameter.info ...
designParamVals: writing netlist parameters to rawfile.

Opening the PSFASCII file ../psf/mc1_separate/007/designParamVals.info ...
primitives: writing primitives to rawfile.

Opening the PSFASCII file ../psf/mc1_separate/007/primitives.info.primitives ...
subckts: writing subcircuits to rawfile.

Opening the PSFASCII file ../psf/mc1_separate/007/subckts.info.subckts ...
    mc1: iteration = 7           (6.06 %), step = 1            (1.01 %)
8              7.07% 

************************************************
Transient Analysis `tran': time = (0 s -> 20 ns)
************************************************

Opening the PSF file ../psf/mc1_separate/008/tran.tran.tran ...

Notice from spectre during IC analysis, during transient analysis `tran', during Monte Carlo analysis `mc1'.
    GminDC = 1 pS is large enough to noticeably affect the DC solution.
        dV(I4.net2) = 101.841 mV
        Use the `gmin_check' option to eliminate or expand this report.
Warning from spectre during check, during IC analysis, during transient analysis `tran', during Monte Carlo analysis `mc1'.
    WARNING (CMI-2943): Parameter checks have been ignored because the valid value for parameter 'trise' could not be found in 'C0'.

DC simulation time: CPU = 709 us, elapsed = 710.011 us.
Important parameter values:
    start = 0 s
    outputstart = 0 s
    stop = 20 ns
    step = 20 ps
    maxstep = 200 ps
    ic = all
    useprevic = no
    skipdc = no
    reltol = 10e-06
    abstol(V) = 1 uV
    abstol(I) = 1 pA
    temp = 27 C
    tnom = 27 C
    tempeffects = all
    errpreset = conservative
    method = gear2only
    lteratio = 10
    relref = alllocal
    cmin = 0 F
    gmin = 1 pS
    rabsshort = 1 mOhm


Notice from spectre during transient analysis `tran', during Monte Carlo analysis `mc1'.
    Multithreading is disabled due to the size of the design being too small.


Output and IC/nodeset summary:
                 save   5       (current)
                 save   17      (voltage)

    tran: time = 509.1 ps    (2.55 %), step = 26.25 ps     (131 m%)
SOAC: I4.MND.soac_m1       modn V(B,PSUB): LEAVING@  0us ;
SOAC: I4.MND.soac_m1       modn V(B,PSUB): ENTERING@ 0.00117611us duration:0.00118us ;
    tran: time = 1.513 ns    (7.57 %), step = 18.07 ps    (90.3 m%)
    tran: time = 2.526 ns    (12.6 %), step = 27.43 ps     (137 m%)
    tran: time = 3.517 ns    (17.6 %), step = 25.42 ps     (127 m%)
SOAC: I4.MND.soac_m1       modn V(B,PSUB): LEAVING@  0.00310073us ;
    tran: time = 4.507 ns    (22.5 %), step = 48.63 ps     (243 m%)
SOAC: I4.MND.soac_m1       modn V(B,PSUB): ENTERING@ 0.0050251us duration:0.00192us ;
    tran: time = 5.502 ns    (27.5 %), step = 44.11 ps     (221 m%)
    tran: time = 6.508 ns    (32.5 %), step = 10.27 ps    (51.4 m%)
    tran: time = 7.523 ns    (37.6 %), step = 26 ps        (130 m%)
SOAC: I4.MND.soac_m1       modn V(B,PSUB): LEAVING@  0.00710072us ;
    tran: time = 8.508 ns    (42.5 %), step = 48.68 ps     (243 m%)
SOAC: I4.MND.soac_m1       modn V(B,PSUB): ENTERING@ 0.0090427us duration:0.00194us ;
    tran: time = 9.51 ns     (47.5 %), step = 33.26 ps     (166 m%)
    tran: time = 10.51 ns    (52.6 %), step = 24.01 ps     (120 m%)
    tran: time = 11.51 ns    (57.6 %), step = 15.88 ps    (79.4 m%)
    tran: time = 12.52 ns    (62.6 %), step = 61.72 ps     (309 m%)
SOAC: I4.MND.soac_m1       modn V(B,PSUB): LEAVING@  0.0120277us ;
SOAC: I4.MND.soac_m1       modn V(B,PSUB): ENTERING@ 0.0131118us duration:0.00108us ;
    tran: time = 13.54 ns    (67.7 %), step = 46.03 ps     (230 m%)
    tran: time = 14.52 ns    (72.6 %), step = 34.54 ps     (173 m%)
    tran: time = 15.51 ns    (77.5 %), step = 12.03 ps    (60.1 m%)
SOAC: I4.MND.soac_m1       modn V(B,PSUB): LEAVING@  0.0150041us ;
    tran: time = 16.51 ns    (82.6 %), step = 30.75 ps     (154 m%)
SOAC: I4.MND.soac_m1       modn V(B,PSUB): ENTERING@ 0.0171288us duration:0.00212us ;
    tran: time = 17.51 ns    (87.5 %), step = 64.26 ps     (321 m%)
    tran: time = 18.52 ns    (92.6 %), step = 34.53 ps     (173 m%)
    tran: time = 19.51 ns    (97.5 %), step = 27.81 ps     (139 m%)
Number of accepted tran steps =             2734

Maximum value achieved for any signal of each quantity: 
V: V(I4.net1) = 3.735 V
I: I(V:p) = 712.1 uA

~~~~~~~~~~~~~~~~~~~~~~~~~~~~~~~~~
Post-Transient Simulation Summary
~~~~~~~~~~~~~~~~~~~~~~~~~~~~~~~~~
   -   To further speed up simulation, consider
          add ++aps on command line
   -   Non-default settings that could significantly slow down simulation
          errpreset = conservative, default moderate
          reltol = 10e-06, default 100e-06 (conservative)
~~~~~~~~~~~~~~~~~~~~~~~~~~~~~~~~~


During simulation, the CPU load for active processors is :
         0 (17.9 %)      1 (5.6 %)       2 (8.4 %)       3 (13.7 %)
         4 (19.6 %)      5 (8.4 %)       6 (8.6 %)       7 (53.1 %)
         8 (5.6 %)       9 (4.8 %)      10 (11.5 %)     11 (8.5 %)
        Total: 165.5%
Initial condition solution time: CPU = 732 us, elapsed = 735.044 us.
Intrinsic tran analysis time:    CPU = 286.989 ms, elapsed = 293.639 ms.
Total time required for tran analysis `tran': CPU = 289.226 ms, elapsed = 302.884 ms, util. = 95.5%.
Time accumulated: CPU = 2.76876 s, elapsed = 3.60815 s.
Peak resident memory used = 197 Mbytes.

finalTimeOP: writing operating point information to rawfile.

Opening the PSF file ../psf/mc1_separate/008/finalTimeOP.info ...
modelParameter: writing model parameter values to rawfile.

Opening the PSF file ../psf/mc1_separate/008/modelParameter.info ...
element: writing instance parameter values to rawfile.

Opening the PSF file ../psf/mc1_separate/008/element.info ...
outputParameter: writing output parameter values to rawfile.

Opening the PSF file ../psf/mc1_separate/008/outputParameter.info ...
designParamVals: writing netlist parameters to rawfile.

Opening the PSFASCII file ../psf/mc1_separate/008/designParamVals.info ...
primitives: writing primitives to rawfile.

Opening the PSFASCII file ../psf/mc1_separate/008/primitives.info.primitives ...
subckts: writing subcircuits to rawfile.

Opening the PSFASCII file ../psf/mc1_separate/008/subckts.info.subckts ...
    mc1: iteration = 8           (7.07 %), step = 1            (1.01 %)
9              8.08% 

************************************************
Transient Analysis `tran': time = (0 s -> 20 ns)
************************************************

Opening the PSF file ../psf/mc1_separate/009/tran.tran.tran ...

Notice from spectre during IC analysis, during transient analysis `tran', during Monte Carlo analysis `mc1'.
    GminDC = 1 pS is large enough to noticeably affect the DC solution.
        dV(I4.net2) = 101.841 mV
        Use the `gmin_check' option to eliminate or expand this report.
Warning from spectre during check, during IC analysis, during transient analysis `tran', during Monte Carlo analysis `mc1'.
    WARNING (CMI-2943): Parameter checks have been ignored because the valid value for parameter 'trise' could not be found in 'C0'.

DC simulation time: CPU = 347 us, elapsed = 347.853 us.
Important parameter values:
    start = 0 s
    outputstart = 0 s
    stop = 20 ns
    step = 20 ps
    maxstep = 200 ps
    ic = all
    useprevic = no
    skipdc = no
    reltol = 10e-06
    abstol(V) = 1 uV
    abstol(I) = 1 pA
    temp = 27 C
    tnom = 27 C
    tempeffects = all
    errpreset = conservative
    method = gear2only
    lteratio = 10
    relref = alllocal
    cmin = 0 F
    gmin = 1 pS
    rabsshort = 1 mOhm


Notice from spectre during transient analysis `tran', during Monte Carlo analysis `mc1'.
    Multithreading is disabled due to the size of the design being too small.


Output and IC/nodeset summary:
                 save   5       (current)
                 save   17      (voltage)

    tran: time = 509.1 ps    (2.55 %), step = 26.25 ps     (131 m%)
SOAC: I4.MND.soac_m1       modn V(B,PSUB): LEAVING@  0us ;
SOAC: I4.MND.soac_m1       modn V(B,PSUB): ENTERING@ 0.00117611us duration:0.00118us ;
    tran: time = 1.513 ns    (7.57 %), step = 18.07 ps    (90.3 m%)
    tran: time = 2.526 ns    (12.6 %), step = 27.43 ps     (137 m%)
    tran: time = 3.517 ns    (17.6 %), step = 25.42 ps     (127 m%)
SOAC: I4.MND.soac_m1       modn V(B,PSUB): LEAVING@  0.00310073us ;
    tran: time = 4.507 ns    (22.5 %), step = 48.63 ps     (243 m%)
SOAC: I4.MND.soac_m1       modn V(B,PSUB): ENTERING@ 0.0050251us duration:0.00192us ;
    tran: time = 5.502 ns    (27.5 %), step = 44.11 ps     (221 m%)
    tran: time = 6.508 ns    (32.5 %), step = 10.27 ps    (51.4 m%)
    tran: time = 7.523 ns    (37.6 %), step = 26 ps        (130 m%)
SOAC: I4.MND.soac_m1       modn V(B,PSUB): LEAVING@  0.00710072us ;
    tran: time = 8.508 ns    (42.5 %), step = 48.68 ps     (243 m%)
SOAC: I4.MND.soac_m1       modn V(B,PSUB): ENTERING@ 0.0090427us duration:0.00194us ;
    tran: time = 9.51 ns     (47.5 %), step = 33.26 ps     (166 m%)
    tran: time = 10.51 ns    (52.6 %), step = 24.01 ps     (120 m%)
    tran: time = 11.51 ns    (57.6 %), step = 15.88 ps    (79.4 m%)
    tran: time = 12.52 ns    (62.6 %), step = 61.72 ps     (309 m%)
SOAC: I4.MND.soac_m1       modn V(B,PSUB): LEAVING@  0.0120277us ;
SOAC: I4.MND.soac_m1       modn V(B,PSUB): ENTERING@ 0.0131118us duration:0.00108us ;
    tran: time = 13.54 ns    (67.7 %), step = 46.03 ps     (230 m%)
    tran: time = 14.52 ns    (72.6 %), step = 34.54 ps     (173 m%)
    tran: time = 15.51 ns    (77.5 %), step = 12.03 ps    (60.1 m%)
SOAC: I4.MND.soac_m1       modn V(B,PSUB): LEAVING@  0.0150041us ;
    tran: time = 16.51 ns    (82.6 %), step = 30.75 ps     (154 m%)
SOAC: I4.MND.soac_m1       modn V(B,PSUB): ENTERING@ 0.0171288us duration:0.00212us ;
    tran: time = 17.51 ns    (87.5 %), step = 64.26 ps     (321 m%)
    tran: time = 18.52 ns    (92.6 %), step = 34.53 ps     (173 m%)
    tran: time = 19.51 ns    (97.5 %), step = 27.81 ps     (139 m%)
Number of accepted tran steps =             2734

Maximum value achieved for any signal of each quantity: 
V: V(I4.net1) = 3.735 V
I: I(V:p) = 712.1 uA

~~~~~~~~~~~~~~~~~~~~~~~~~~~~~~~~~
Post-Transient Simulation Summary
~~~~~~~~~~~~~~~~~~~~~~~~~~~~~~~~~
   -   To further speed up simulation, consider
          add ++aps on command line
   -   Non-default settings that could significantly slow down simulation
          errpreset = conservative, default moderate
          reltol = 10e-06, default 100e-06 (conservative)
~~~~~~~~~~~~~~~~~~~~~~~~~~~~~~~~~


During simulation, the CPU load for active processors is :
         0 (23.4 %)      1 (5.1 %)       2 (7.7 %)       3 (12.6 %)
         4 (18.0 %)      5 (7.7 %)       6 (7.9 %)       7 (48.7 %)
         8 (5.4 %)       9 (4.4 %)      10 (10.6 %)     11 (7.8 %)
        Total: 159.4%
Initial condition solution time: CPU = 364 us, elapsed = 365.019 us.
Intrinsic tran analysis time:    CPU = 255.194 ms, elapsed = 264.89 ms.
Total time required for tran analysis `tran': CPU = 256.958 ms, elapsed = 276.093 ms, util. = 93.1%.
Time accumulated: CPU = 3.03849 s, elapsed = 3.92552 s.
Peak resident memory used = 197 Mbytes.

finalTimeOP: writing operating point information to rawfile.

Opening the PSF file ../psf/mc1_separate/009/finalTimeOP.info ...
modelParameter: writing model parameter values to rawfile.

Opening the PSF file ../psf/mc1_separate/009/modelParameter.info ...
element: writing instance parameter values to rawfile.

Opening the PSF file ../psf/mc1_separate/009/element.info ...
outputParameter: writing output parameter values to rawfile.

Opening the PSF file ../psf/mc1_separate/009/outputParameter.info ...
designParamVals: writing netlist parameters to rawfile.

Opening the PSFASCII file ../psf/mc1_separate/009/designParamVals.info ...
primitives: writing primitives to rawfile.

Opening the PSFASCII file ../psf/mc1_separate/009/primitives.info.primitives ...
subckts: writing subcircuits to rawfile.

Opening the PSFASCII file ../psf/mc1_separate/009/subckts.info.subckts ...
    mc1: iteration = 9           (8.08 %), step = 1            (1.01 %)
10             9.09% 

************************************************
Transient Analysis `tran': time = (0 s -> 20 ns)
************************************************

Opening the PSF file ../psf/mc1_separate/010/tran.tran.tran ...

Notice from spectre during IC analysis, during transient analysis `tran', during Monte Carlo analysis `mc1'.
    GminDC = 1 pS is large enough to noticeably affect the DC solution.
        dV(I4.net2) = 101.841 mV
        Use the `gmin_check' option to eliminate or expand this report.
Warning from spectre during check, during IC analysis, during transient analysis `tran', during Monte Carlo analysis `mc1'.
    WARNING (CMI-2943): Parameter checks have been ignored because the valid value for parameter 'trise' could not be found in 'C0'.

DC simulation time: CPU = 386 us, elapsed = 390.053 us.
Important parameter values:
    start = 0 s
    outputstart = 0 s
    stop = 20 ns
    step = 20 ps
    maxstep = 200 ps
    ic = all
    useprevic = no
    skipdc = no
    reltol = 10e-06
    abstol(V) = 1 uV
    abstol(I) = 1 pA
    temp = 27 C
    tnom = 27 C
    tempeffects = all
    errpreset = conservative
    method = gear2only
    lteratio = 10
    relref = alllocal
    cmin = 0 F
    gmin = 1 pS
    rabsshort = 1 mOhm


Notice from spectre during transient analysis `tran', during Monte Carlo analysis `mc1'.
    Multithreading is disabled due to the size of the design being too small.


Output and IC/nodeset summary:
                 save   5       (current)
                 save   17      (voltage)

    tran: time = 509.1 ps    (2.55 %), step = 26.25 ps     (131 m%)
SOAC: I4.MND.soac_m1       modn V(B,PSUB): LEAVING@  0us ;
SOAC: I4.MND.soac_m1       modn V(B,PSUB): ENTERING@ 0.00117611us duration:0.00118us ;
    tran: time = 1.513 ns    (7.57 %), step = 18.07 ps    (90.3 m%)
    tran: time = 2.526 ns    (12.6 %), step = 27.43 ps     (137 m%)
    tran: time = 3.517 ns    (17.6 %), step = 25.42 ps     (127 m%)
SOAC: I4.MND.soac_m1       modn V(B,PSUB): LEAVING@  0.00310073us ;
    tran: time = 4.507 ns    (22.5 %), step = 48.63 ps     (243 m%)
SOAC: I4.MND.soac_m1       modn V(B,PSUB): ENTERING@ 0.0050251us duration:0.00192us ;
    tran: time = 5.502 ns    (27.5 %), step = 44.11 ps     (221 m%)
    tran: time = 6.508 ns    (32.5 %), step = 10.27 ps    (51.4 m%)
    tran: time = 7.523 ns    (37.6 %), step = 26 ps        (130 m%)
SOAC: I4.MND.soac_m1       modn V(B,PSUB): LEAVING@  0.00710072us ;
    tran: time = 8.508 ns    (42.5 %), step = 48.68 ps     (243 m%)
SOAC: I4.MND.soac_m1       modn V(B,PSUB): ENTERING@ 0.0090427us duration:0.00194us ;
    tran: time = 9.51 ns     (47.5 %), step = 33.26 ps     (166 m%)
    tran: time = 10.51 ns    (52.6 %), step = 24.01 ps     (120 m%)
    tran: time = 11.51 ns    (57.6 %), step = 15.88 ps    (79.4 m%)
    tran: time = 12.52 ns    (62.6 %), step = 61.72 ps     (309 m%)
SOAC: I4.MND.soac_m1       modn V(B,PSUB): LEAVING@  0.0120277us ;
SOAC: I4.MND.soac_m1       modn V(B,PSUB): ENTERING@ 0.0131118us duration:0.00108us ;
    tran: time = 13.54 ns    (67.7 %), step = 46.03 ps     (230 m%)
    tran: time = 14.52 ns    (72.6 %), step = 34.54 ps     (173 m%)
    tran: time = 15.51 ns    (77.5 %), step = 12.03 ps    (60.1 m%)
SOAC: I4.MND.soac_m1       modn V(B,PSUB): LEAVING@  0.0150041us ;
    tran: time = 16.51 ns    (82.6 %), step = 30.75 ps     (154 m%)
SOAC: I4.MND.soac_m1       modn V(B,PSUB): ENTERING@ 0.0171288us duration:0.00212us ;
    tran: time = 17.51 ns    (87.5 %), step = 64.26 ps     (321 m%)
    tran: time = 18.52 ns    (92.6 %), step = 34.53 ps     (173 m%)
    tran: time = 19.51 ns    (97.5 %), step = 27.81 ps     (139 m%)
Number of accepted tran steps =             2734

Maximum value achieved for any signal of each quantity: 
V: V(I4.net1) = 3.735 V
I: I(V:p) = 712.1 uA

~~~~~~~~~~~~~~~~~~~~~~~~~~~~~~~~~
Post-Transient Simulation Summary
~~~~~~~~~~~~~~~~~~~~~~~~~~~~~~~~~
   -   To further speed up simulation, consider
          add ++aps on command line
   -   Non-default settings that could significantly slow down simulation
          errpreset = conservative, default moderate
          reltol = 10e-06, default 100e-06 (conservative)
~~~~~~~~~~~~~~~~~~~~~~~~~~~~~~~~~


During simulation, the CPU load for active processors is :
         0 (21.7 %)      1 (4.8 %)       2 (7.2 %)       3 (11.7 %)
         4 (17.6 %)      5 (7.1 %)       6 (7.4 %)       7 (45.1 %)
         8 (5.0 %)       9 (4.1 %)      10 (15.3 %)     11 (7.7 %)
        Total: 154.5%
Initial condition solution time: CPU = 401 us, elapsed = 405.788 us.
Intrinsic tran analysis time:    CPU = 251.284 ms, elapsed = 259.182 ms.
Total time required for tran analysis `tran': CPU = 253.061 ms, elapsed = 269.836 ms, util. = 93.8%.
Time accumulated: CPU = 3.30514 s, elapsed = 4.23852 s.
Peak resident memory used = 197 Mbytes.

finalTimeOP: writing operating point information to rawfile.

Opening the PSF file ../psf/mc1_separate/010/finalTimeOP.info ...
modelParameter: writing model parameter values to rawfile.

Opening the PSF file ../psf/mc1_separate/010/modelParameter.info ...
element: writing instance parameter values to rawfile.

Opening the PSF file ../psf/mc1_separate/010/element.info ...
outputParameter: writing output parameter values to rawfile.

Opening the PSF file ../psf/mc1_separate/010/outputParameter.info ...
designParamVals: writing netlist parameters to rawfile.

Opening the PSFASCII file ../psf/mc1_separate/010/designParamVals.info ...
primitives: writing primitives to rawfile.

Opening the PSFASCII file ../psf/mc1_separate/010/primitives.info.primitives ...
subckts: writing subcircuits to rawfile.

Opening the PSFASCII file ../psf/mc1_separate/010/subckts.info.subckts ...
    mc1: iteration = 10          (9.09 %), step = 1            (1.01 %)
11            10.10% 

************************************************
Transient Analysis `tran': time = (0 s -> 20 ns)
************************************************

Opening the PSF file ../psf/mc1_separate/011/tran.tran.tran ...

Notice from spectre during IC analysis, during transient analysis `tran', during Monte Carlo analysis `mc1'.
    GminDC = 1 pS is large enough to noticeably affect the DC solution.
        dV(I4.net2) = 101.841 mV
        Use the `gmin_check' option to eliminate or expand this report.
Warning from spectre during check, during IC analysis, during transient analysis `tran', during Monte Carlo analysis `mc1'.
    WARNING (CMI-2943): Parameter checks have been ignored because the valid value for parameter 'trise' could not be found in 'C0'.

DC simulation time: CPU = 366 us, elapsed = 371.218 us.
Important parameter values:
    start = 0 s
    outputstart = 0 s
    stop = 20 ns
    step = 20 ps
    maxstep = 200 ps
    ic = all
    useprevic = no
    skipdc = no
    reltol = 10e-06
    abstol(V) = 1 uV
    abstol(I) = 1 pA
    temp = 27 C
    tnom = 27 C
    tempeffects = all
    errpreset = conservative
    method = gear2only
    lteratio = 10
    relref = alllocal
    cmin = 0 F
    gmin = 1 pS
    rabsshort = 1 mOhm


Notice from spectre during transient analysis `tran', during Monte Carlo analysis `mc1'.
    Multithreading is disabled due to the size of the design being too small.


Output and IC/nodeset summary:
                 save   5       (current)
                 save   17      (voltage)

    tran: time = 509.1 ps    (2.55 %), step = 26.25 ps     (131 m%)
SOAC: I4.MND.soac_m1       modn V(B,PSUB): LEAVING@  0us ;
SOAC: I4.MND.soac_m1       modn V(B,PSUB): ENTERING@ 0.00117611us duration:0.00118us ;
    tran: time = 1.513 ns    (7.57 %), step = 18.07 ps    (90.3 m%)
    tran: time = 2.526 ns    (12.6 %), step = 27.43 ps     (137 m%)
    tran: time = 3.517 ns    (17.6 %), step = 25.42 ps     (127 m%)
SOAC: I4.MND.soac_m1       modn V(B,PSUB): LEAVING@  0.00310073us ;
    tran: time = 4.507 ns    (22.5 %), step = 48.63 ps     (243 m%)
SOAC: I4.MND.soac_m1       modn V(B,PSUB): ENTERING@ 0.0050251us duration:0.00192us ;
    tran: time = 5.502 ns    (27.5 %), step = 44.11 ps     (221 m%)
    tran: time = 6.508 ns    (32.5 %), step = 10.27 ps    (51.4 m%)
    tran: time = 7.523 ns    (37.6 %), step = 26 ps        (130 m%)
SOAC: I4.MND.soac_m1       modn V(B,PSUB): LEAVING@  0.00710072us ;
    tran: time = 8.508 ns    (42.5 %), step = 48.68 ps     (243 m%)
SOAC: I4.MND.soac_m1       modn V(B,PSUB): ENTERING@ 0.0090427us duration:0.00194us ;
    tran: time = 9.51 ns     (47.5 %), step = 33.26 ps     (166 m%)
    tran: time = 10.51 ns    (52.6 %), step = 24.01 ps     (120 m%)
    tran: time = 11.51 ns    (57.6 %), step = 15.88 ps    (79.4 m%)
    tran: time = 12.52 ns    (62.6 %), step = 61.72 ps     (309 m%)
SOAC: I4.MND.soac_m1       modn V(B,PSUB): LEAVING@  0.0120277us ;
SOAC: I4.MND.soac_m1       modn V(B,PSUB): ENTERING@ 0.0131118us duration:0.00108us ;
    tran: time = 13.54 ns    (67.7 %), step = 46.03 ps     (230 m%)
    tran: time = 14.52 ns    (72.6 %), step = 34.54 ps     (173 m%)
    tran: time = 15.51 ns    (77.5 %), step = 12.03 ps    (60.1 m%)
SOAC: I4.MND.soac_m1       modn V(B,PSUB): LEAVING@  0.0150041us ;
    tran: time = 16.51 ns    (82.6 %), step = 30.75 ps     (154 m%)
SOAC: I4.MND.soac_m1       modn V(B,PSUB): ENTERING@ 0.0171288us duration:0.00212us ;
    tran: time = 17.51 ns    (87.5 %), step = 64.26 ps     (321 m%)
    tran: time = 18.52 ns    (92.6 %), step = 34.53 ps     (173 m%)
    tran: time = 19.51 ns    (97.5 %), step = 27.81 ps     (139 m%)
Number of accepted tran steps =             2734

Maximum value achieved for any signal of each quantity: 
V: V(I4.net1) = 3.735 V
I: I(V:p) = 712.1 uA

~~~~~~~~~~~~~~~~~~~~~~~~~~~~~~~~~
Post-Transient Simulation Summary
~~~~~~~~~~~~~~~~~~~~~~~~~~~~~~~~~
   -   To further speed up simulation, consider
          add ++aps on command line
   -   Non-default settings that could significantly slow down simulation
          errpreset = conservative, default moderate
          reltol = 10e-06, default 100e-06 (conservative)
[...]
          errpreset = conservative, default moderate
          reltol = 10e-06, default 100e-06 (conservative)
~~~~~~~~~~~~~~~~~~~~~~~~~~~~~~~~~


During simulation, the CPU load for active processors is :
         0 (20.1 %)      1 (9.0 %)       2 (9.3 %)       3 (9.1 %)
         4 (22.8 %)      5 (10.6 %)      6 (8.2 %)       7 (18.5 %)
         8 (9.4 %)       9 (9.5 %)      10 (16.3 %)     11 (10.9 %)
        Total: 153.6%
Initial condition solution time: CPU = 372 us, elapsed = 375.986 us.
Intrinsic tran analysis time:    CPU = 260.556 ms, elapsed = 268.219 ms.
Total time required for tran analysis `tran': CPU = 262.205 ms, elapsed = 277.889 ms, util. = 94.4%.
Time accumulated: CPU = 27.533 s, elapsed = 32.1397 s.
Peak resident memory used = 199 Mbytes.

finalTimeOP: writing operating point information to rawfile.

Opening the PSF file ../psf/mc1_separate/097/finalTimeOP.info ...
modelParameter: writing model parameter values to rawfile.

Opening the PSF file ../psf/mc1_separate/097/modelParameter.info ...
element: writing instance parameter values to rawfile.

Opening the PSF file ../psf/mc1_separate/097/element.info ...
outputParameter: writing output parameter values to rawfile.

Opening the PSF file ../psf/mc1_separate/097/outputParameter.info ...
designParamVals: writing netlist parameters to rawfile.

Opening the PSFASCII file ../psf/mc1_separate/097/designParamVals.info ...
primitives: writing primitives to rawfile.

Opening the PSFASCII file ../psf/mc1_separate/097/primitives.info.primitives ...
subckts: writing subcircuits to rawfile.

Opening the PSFASCII file ../psf/mc1_separate/097/subckts.info.subckts ...
    mc1: iteration = 97            (97 %), step = 1            (1.01 %)
98            97.98% 

************************************************
Transient Analysis `tran': time = (0 s -> 20 ns)
************************************************

Opening the PSF file ../psf/mc1_separate/098/tran.tran.tran ...

Notice from spectre during IC analysis, during transient analysis `tran', during Monte Carlo analysis `mc1'.
    GminDC = 1 pS is large enough to noticeably affect the DC solution.
        dV(I4.net2) = 101.841 mV
        Use the `gmin_check' option to eliminate or expand this report.
Warning from spectre during check, during IC analysis, during transient analysis `tran', during Monte Carlo analysis `mc1'.
    WARNING (CMI-2943): Parameter checks have been ignored because the valid value for parameter 'trise' could not be found in 'C0'.

DC simulation time: CPU = 356 us, elapsed = 356.913 us.
Important parameter values:
    start = 0 s
    outputstart = 0 s
    stop = 20 ns
    step = 20 ps
    maxstep = 200 ps
    ic = all
    useprevic = no
    skipdc = no
    reltol = 10e-06
    abstol(V) = 1 uV
    abstol(I) = 1 pA
    temp = 27 C
    tnom = 27 C
    tempeffects = all
    errpreset = conservative
    method = gear2only
    lteratio = 10
    relref = alllocal
    cmin = 0 F
    gmin = 1 pS
    rabsshort = 1 mOhm


Notice from spectre during transient analysis `tran', during Monte Carlo analysis `mc1'.
    Multithreading is disabled due to the size of the design being too small.


Output and IC/nodeset summary:
                 save   5       (current)
                 save   17      (voltage)

    tran: time = 509.1 ps    (2.55 %), step = 26.25 ps     (131 m%)
SOAC: I4.MND.soac_m1       modn V(B,PSUB): LEAVING@  0us ;
SOAC: I4.MND.soac_m1       modn V(B,PSUB): ENTERING@ 0.00117611us duration:0.00118us ;
    tran: time = 1.513 ns    (7.57 %), step = 18.07 ps    (90.3 m%)
    tran: time = 2.526 ns    (12.6 %), step = 27.43 ps     (137 m%)
    tran: time = 3.517 ns    (17.6 %), step = 25.42 ps     (127 m%)
SOAC: I4.MND.soac_m1       modn V(B,PSUB): LEAVING@  0.00310073us ;
    tran: time = 4.507 ns    (22.5 %), step = 48.63 ps     (243 m%)
SOAC: I4.MND.soac_m1       modn V(B,PSUB): ENTERING@ 0.0050251us duration:0.00192us ;
    tran: time = 5.502 ns    (27.5 %), step = 44.11 ps     (221 m%)
    tran: time = 6.508 ns    (32.5 %), step = 10.27 ps    (51.4 m%)
    tran: time = 7.523 ns    (37.6 %), step = 26 ps        (130 m%)
SOAC: I4.MND.soac_m1       modn V(B,PSUB): LEAVING@  0.00710072us ;
    tran: time = 8.508 ns    (42.5 %), step = 48.68 ps     (243 m%)
SOAC: I4.MND.soac_m1       modn V(B,PSUB): ENTERING@ 0.0090427us duration:0.00194us ;
    tran: time = 9.51 ns     (47.5 %), step = 33.26 ps     (166 m%)
    tran: time = 10.51 ns    (52.6 %), step = 24.01 ps     (120 m%)
    tran: time = 11.51 ns    (57.6 %), step = 15.88 ps    (79.4 m%)
    tran: time = 12.52 ns    (62.6 %), step = 61.72 ps     (309 m%)
SOAC: I4.MND.soac_m1       modn V(B,PSUB): LEAVING@  0.0120277us ;
SOAC: I4.MND.soac_m1       modn V(B,PSUB): ENTERING@ 0.0131118us duration:0.00108us ;
    tran: time = 13.54 ns    (67.7 %), step = 46.03 ps     (230 m%)
    tran: time = 14.52 ns    (72.6 %), step = 34.54 ps     (173 m%)
    tran: time = 15.51 ns    (77.5 %), step = 12.03 ps    (60.1 m%)
SOAC: I4.MND.soac_m1       modn V(B,PSUB): LEAVING@  0.0150041us ;
    tran: time = 16.51 ns    (82.6 %), step = 30.75 ps     (154 m%)
SOAC: I4.MND.soac_m1       modn V(B,PSUB): ENTERING@ 0.0171288us duration:0.00212us ;
    tran: time = 17.51 ns    (87.5 %), step = 64.26 ps     (321 m%)
    tran: time = 18.52 ns    (92.6 %), step = 34.53 ps     (173 m%)
    tran: time = 19.51 ns    (97.5 %), step = 27.81 ps     (139 m%)
Number of accepted tran steps =             2734

Maximum value achieved for any signal of each quantity: 
V: V(I4.net1) = 3.735 V
I: I(V:p) = 712.1 uA

~~~~~~~~~~~~~~~~~~~~~~~~~~~~~~~~~
Post-Transient Simulation Summary
~~~~~~~~~~~~~~~~~~~~~~~~~~~~~~~~~
   -   To further speed up simulation, consider
          add ++aps on command line
   -   Non-default settings that could significantly slow down simulation
          errpreset = conservative, default moderate
          reltol = 10e-06, default 100e-06 (conservative)
~~~~~~~~~~~~~~~~~~~~~~~~~~~~~~~~~


During simulation, the CPU load for active processors is :
         0 (20.0 %)      1 (9.0 %)       2 (9.2 %)       3 (9.0 %)
         4 (22.8 %)      5 (11.0 %)      6 (8.1 %)       7 (18.3 %)
         8 (9.3 %)       9 (9.5 %)      10 (16.9 %)     11 (10.8 %)
        Total: 154.0%
Initial condition solution time: CPU = 375 us, elapsed = 375.986 us.
Intrinsic tran analysis time:    CPU = 273.248 ms, elapsed = 279.597 ms.
Total time required for tran analysis `tran': CPU = 275.164 ms, elapsed = 289.129 ms, util. = 95.2%.
Time accumulated: CPU = 27.8214 s, elapsed = 32.4679 s.
Peak resident memory used = 199 Mbytes.

finalTimeOP: writing operating point information to rawfile.

Opening the PSF file ../psf/mc1_separate/098/finalTimeOP.info ...
modelParameter: writing model parameter values to rawfile.

Opening the PSF file ../psf/mc1_separate/098/modelParameter.info ...
element: writing instance parameter values to rawfile.

Opening the PSF file ../psf/mc1_separate/098/element.info ...
outputParameter: writing output parameter values to rawfile.

Opening the PSF file ../psf/mc1_separate/098/outputParameter.info ...
designParamVals: writing netlist parameters to rawfile.

Opening the PSFASCII file ../psf/mc1_separate/098/designParamVals.info ...
primitives: writing primitives to rawfile.

Opening the PSFASCII file ../psf/mc1_separate/098/primitives.info.primitives ...
subckts: writing subcircuits to rawfile.

Opening the PSFASCII file ../psf/mc1_separate/098/subckts.info.subckts ...
    mc1: iteration = 98            (98 %), step = 1            (1.01 %)
99            98.99% 

************************************************
Transient Analysis `tran': time = (0 s -> 20 ns)
************************************************

Opening the PSF file ../psf/mc1_separate/099/tran.tran.tran ...

Notice from spectre during IC analysis, during transient analysis `tran', during Monte Carlo analysis `mc1'.
    GminDC = 1 pS is large enough to noticeably affect the DC solution.
        dV(I4.net2) = 101.841 mV
        Use the `gmin_check' option to eliminate or expand this report.
Warning from spectre during check, during IC analysis, during transient analysis `tran', during Monte Carlo analysis `mc1'.
    WARNING (CMI-2943): Parameter checks have been ignored because the valid value for parameter 'trise' could not be found in 'C0'.

DC simulation time: CPU = 699 us, elapsed = 700.951 us.
Important parameter values:
    start = 0 s
    outputstart = 0 s
    stop = 20 ns
    step = 20 ps
    maxstep = 200 ps
    ic = all
    useprevic = no
    skipdc = no
    reltol = 10e-06
    abstol(V) = 1 uV
    abstol(I) = 1 pA
    temp = 27 C
    tnom = 27 C
    tempeffects = all
    errpreset = conservative
    method = gear2only
    lteratio = 10
    relref = alllocal
    cmin = 0 F
    gmin = 1 pS
    rabsshort = 1 mOhm


Notice from spectre during transient analysis `tran', during Monte Carlo analysis `mc1'.
    Multithreading is disabled due to the size of the design being too small.


Output and IC/nodeset summary:
                 save   5       (current)
                 save   17      (voltage)

    tran: time = 509.1 ps    (2.55 %), step = 26.25 ps     (131 m%)
SOAC: I4.MND.soac_m1       modn V(B,PSUB): LEAVING@  0us ;
SOAC: I4.MND.soac_m1       modn V(B,PSUB): ENTERING@ 0.00117611us duration:0.00118us ;
    tran: time = 1.513 ns    (7.57 %), step = 18.07 ps    (90.3 m%)
    tran: time = 2.526 ns    (12.6 %), step = 27.43 ps     (137 m%)
    tran: time = 3.517 ns    (17.6 %), step = 25.42 ps     (127 m%)
SOAC: I4.MND.soac_m1       modn V(B,PSUB): LEAVING@  0.00310073us ;
    tran: time = 4.507 ns    (22.5 %), step = 48.63 ps     (243 m%)
SOAC: I4.MND.soac_m1       modn V(B,PSUB): ENTERING@ 0.0050251us duration:0.00192us ;
    tran: time = 5.502 ns    (27.5 %), step = 44.11 ps     (221 m%)
    tran: time = 6.508 ns    (32.5 %), step = 10.27 ps    (51.4 m%)
    tran: time = 7.523 ns    (37.6 %), step = 26 ps        (130 m%)
SOAC: I4.MND.soac_m1       modn V(B,PSUB): LEAVING@  0.00710072us ;
    tran: time = 8.508 ns    (42.5 %), step = 48.68 ps     (243 m%)
SOAC: I4.MND.soac_m1       modn V(B,PSUB): ENTERING@ 0.0090427us duration:0.00194us ;
    tran: time = 9.51 ns     (47.5 %), step = 33.26 ps     (166 m%)
    tran: time = 10.51 ns    (52.6 %), step = 24.01 ps     (120 m%)
    tran: time = 11.51 ns    (57.6 %), step = 15.88 ps    (79.4 m%)
    tran: time = 12.52 ns    (62.6 %), step = 61.72 ps     (309 m%)
SOAC: I4.MND.soac_m1       modn V(B,PSUB): LEAVING@  0.0120277us ;
SOAC: I4.MND.soac_m1       modn V(B,PSUB): ENTERING@ 0.0131118us duration:0.00108us ;
    tran: time = 13.54 ns    (67.7 %), step = 46.03 ps     (230 m%)
    tran: time = 14.52 ns    (72.6 %), step = 34.54 ps     (173 m%)
    tran: time = 15.51 ns    (77.5 %), step = 12.03 ps    (60.1 m%)
SOAC: I4.MND.soac_m1       modn V(B,PSUB): LEAVING@  0.0150041us ;
    tran: time = 16.51 ns    (82.6 %), step = 30.75 ps     (154 m%)
SOAC: I4.MND.soac_m1       modn V(B,PSUB): ENTERING@ 0.0171288us duration:0.00212us ;
    tran: time = 17.51 ns    (87.5 %), step = 64.26 ps     (321 m%)
    tran: time = 18.52 ns    (92.6 %), step = 34.53 ps     (173 m%)
    tran: time = 19.51 ns    (97.5 %), step = 27.81 ps     (139 m%)
Number of accepted tran steps =             2734

Maximum value achieved for any signal of each quantity: 
V: V(I4.net1) = 3.735 V
I: I(V:p) = 712.1 uA

~~~~~~~~~~~~~~~~~~~~~~~~~~~~~~~~~
Post-Transient Simulation Summary
~~~~~~~~~~~~~~~~~~~~~~~~~~~~~~~~~
   -   To further speed up simulation, consider
          add ++aps on command line
   -   Non-default settings that could significantly slow down simulation
          errpreset = conservative, default moderate
          reltol = 10e-06, default 100e-06 (conservative)
~~~~~~~~~~~~~~~~~~~~~~~~~~~~~~~~~


During simulation, the CPU load for active processors is :
         0 (19.8 %)      1 (8.9 %)       2 (9.4 %)       3 (8.9 %)
         4 (22.7 %)      5 (11.1 %)      6 (8.0 %)       7 (18.2 %)
         8 (9.2 %)       9 (9.4 %)      10 (17.6 %)     11 (10.9 %)
        Total: 154.2%
Initial condition solution time: CPU = 729 us, elapsed = 732.899 us.
Intrinsic tran analysis time:    CPU = 257.402 ms, elapsed = 264.223 ms.
Total time required for tran analysis `tran': CPU = 259.824 ms, elapsed = 273.923 ms, util. = 94.9%.
Time accumulated: CPU = 28.1031 s, elapsed = 32.788 s.
Peak resident memory used = 199 Mbytes.

finalTimeOP: writing operating point information to rawfile.

Opening the PSF file ../psf/mc1_separate/099/finalTimeOP.info ...
modelParameter: writing model parameter values to rawfile.

Opening the PSF file ../psf/mc1_separate/099/modelParameter.info ...
element: writing instance parameter values to rawfile.

Opening the PSF file ../psf/mc1_separate/099/element.info ...
outputParameter: writing output parameter values to rawfile.

Opening the PSF file ../psf/mc1_separate/099/outputParameter.info ...
designParamVals: writing netlist parameters to rawfile.

Opening the PSFASCII file ../psf/mc1_separate/099/designParamVals.info ...
primitives: writing primitives to rawfile.

Opening the PSFASCII file ../psf/mc1_separate/099/primitives.info.primitives ...
subckts: writing subcircuits to rawfile.

Opening the PSFASCII file ../psf/mc1_separate/099/subckts.info.subckts ...
    mc1: iteration = 99            (99 %), step = 1            (1.01 %)
100          100.00% 

************************************************
Transient Analysis `tran': time = (0 s -> 20 ns)
************************************************

Opening the PSF file ../psf/mc1_separate/100/tran.tran.tran ...

Notice from spectre during IC analysis, during transient analysis `tran', during Monte Carlo analysis `mc1'.
    GminDC = 1 pS is large enough to noticeably affect the DC solution.
        dV(I4.net2) = 101.841 mV
        Use the `gmin_check' option to eliminate or expand this report.
Warning from spectre during check, during IC analysis, during transient analysis `tran', during Monte Carlo analysis `mc1'.
    WARNING (CMI-2943): Parameter checks have been ignored because the valid value for parameter 'trise' could not be found in 'C0'.

DC simulation time: CPU = 571 us, elapsed = 571.012 us.
Important parameter values:
    start = 0 s
    outputstart = 0 s
    stop = 20 ns
    step = 20 ps
    maxstep = 200 ps
    ic = all
    useprevic = no
    skipdc = no
    reltol = 10e-06
    abstol(V) = 1 uV
    abstol(I) = 1 pA
    temp = 27 C
    tnom = 27 C
    tempeffects = all
    errpreset = conservative
    method = gear2only
    lteratio = 10
    relref = alllocal
    cmin = 0 F
    gmin = 1 pS
    rabsshort = 1 mOhm


Notice from spectre during transient analysis `tran', during Monte Carlo analysis `mc1'.
    Multithreading is disabled due to the size of the design being too small.


Output and IC/nodeset summary:
                 save   5       (current)
                 save   17      (voltage)

    tran: time = 509.1 ps    (2.55 %), step = 26.25 ps     (131 m%)
SOAC: I4.MND.soac_m1       modn V(B,PSUB): LEAVING@  0us ;
SOAC: I4.MND.soac_m1       modn V(B,PSUB): ENTERING@ 0.00117611us duration:0.00118us ;
    tran: time = 1.513 ns    (7.57 %), step = 18.07 ps    (90.3 m%)
    tran: time = 2.526 ns    (12.6 %), step = 27.43 ps     (137 m%)
    tran: time = 3.517 ns    (17.6 %), step = 25.42 ps     (127 m%)
SOAC: I4.MND.soac_m1       modn V(B,PSUB): LEAVING@  0.00310073us ;
    tran: time = 4.507 ns    (22.5 %), step = 48.63 ps     (243 m%)
SOAC: I4.MND.soac_m1       modn V(B,PSUB): ENTERING@ 0.0050251us duration:0.00192us ;
    tran: time = 5.502 ns    (27.5 %), step = 44.11 ps     (221 m%)
    tran: time = 6.508 ns    (32.5 %), step = 10.27 ps    (51.4 m%)
    tran: time = 7.523 ns    (37.6 %), step = 26 ps        (130 m%)
SOAC: I4.MND.soac_m1       modn V(B,PSUB): LEAVING@  0.00710072us ;
    tran: time = 8.508 ns    (42.5 %), step = 48.68 ps     (243 m%)
SOAC: I4.MND.soac_m1       modn V(B,PSUB): ENTERING@ 0.0090427us duration:0.00194us ;
    tran: time = 9.51 ns     (47.5 %), step = 33.26 ps     (166 m%)
    tran: time = 10.51 ns    (52.6 %), step = 24.01 ps     (120 m%)
    tran: time = 11.51 ns    (57.6 %), step = 15.88 ps    (79.4 m%)
    tran: time = 12.52 ns    (62.6 %), step = 61.72 ps     (309 m%)
SOAC: I4.MND.soac_m1       modn V(B,PSUB): LEAVING@  0.0120277us ;
SOAC: I4.MND.soac_m1       modn V(B,PSUB): ENTERING@ 0.0131118us duration:0.00108us ;
    tran: time = 13.54 ns    (67.7 %), step = 46.03 ps     (230 m%)
    tran: time = 14.52 ns    (72.6 %), step = 34.54 ps     (173 m%)
    tran: time = 15.51 ns    (77.5 %), step = 12.03 ps    (60.1 m%)
SOAC: I4.MND.soac_m1       modn V(B,PSUB): LEAVING@  0.0150041us ;
    tran: time = 16.51 ns    (82.6 %), step = 30.75 ps     (154 m%)
SOAC: I4.MND.soac_m1       modn V(B,PSUB): ENTERING@ 0.0171288us duration:0.00212us ;
    tran: time = 17.51 ns    (87.5 %), step = 64.26 ps     (321 m%)
    tran: time = 18.52 ns    (92.6 %), step = 34.53 ps     (173 m%)
    tran: time = 19.51 ns    (97.5 %), step = 27.81 ps     (139 m%)
Number of accepted tran steps =             2734

Maximum value achieved for any signal of each quantity: 
V: V(I4.net1) = 3.735 V
I: I(V:p) = 712.1 uA

~~~~~~~~~~~~~~~~~~~~~~~~~~~~~~~~~
Post-Transient Simulation Summary
~~~~~~~~~~~~~~~~~~~~~~~~~~~~~~~~~
   -   To further speed up simulation, consider
          add ++aps on command line
   -   Non-default settings that could significantly slow down simulation
          errpreset = conservative, default moderate
          reltol = 10e-06, default 100e-06 (conservative)
~~~~~~~~~~~~~~~~~~~~~~~~~~~~~~~~~


During simulation, the CPU load for active processors is :
         0 (19.7 %)      1 (8.8 %)       2 (9.6 %)       3 (8.9 %)
         4 (22.5 %)      5 (11.0 %)      6 (8.0 %)       7 (18.0 %)
         8 (9.5 %)       9 (10.1 %)     10 (17.5 %)     11 (10.9 %)
        Total: 154.4%
Initial condition solution time: CPU = 593 us, elapsed = 592.947 us.
Intrinsic tran analysis time:    CPU = 259.796 ms, elapsed = 266.626 ms.
Total time required for tran analysis `tran': CPU = 262.008 ms, elapsed = 278.601 ms, util. = 94%.
Time accumulated: CPU = 28.3796 s, elapsed = 33.1055 s.
Peak resident memory used = 199 Mbytes.

finalTimeOP: writing operating point information to rawfile.

Opening the PSF file ../psf/mc1_separate/100/finalTimeOP.info ...
modelParameter: writing model parameter values to rawfile.

Opening the PSF file ../psf/mc1_separate/100/modelParameter.info ...
element: writing instance parameter values to rawfile.

Opening the PSF file ../psf/mc1_separate/100/element.info ...
outputParameter: writing output parameter values to rawfile.

Opening the PSF file ../psf/mc1_separate/100/outputParameter.info ...
designParamVals: writing netlist parameters to rawfile.

Opening the PSFASCII file ../psf/mc1_separate/100/designParamVals.info ...
primitives: writing primitives to rawfile.

Opening the PSFASCII file ../psf/mc1_separate/100/primitives.info.primitives ...
subckts: writing subcircuits to rawfile.

Opening the PSFASCII file ../psf/mc1_separate/100/subckts.info.subckts ...
    mc1: iteration = 100          (100 %), step = 1            (1.01 %)
Total time required for montecarlo analysis `mc1': CPU = 28.2321 s, elapsed = 32.536 s, util. = 86.8%.
Time accumulated: CPU = 28.3901 s, elapsed = 33.1396 s.
Peak resident memory used = 199 Mbytes.

Licensing Information:
Lic Summary:
[22:32:31.268312] Cdslmd servers:5280@ls-dc2-fen-p1.services.bris.ac.uk:5280@ls-dc2-fen-p0.services.bris.ac.uk
[22:32:31.268344] Feature usage summary:
[22:32:31.268345] Virtuoso_Multi_mode_Simulation


Aggregate audit (10:32:31 PM, Sat Apr 20, 2024):
Time used: CPU = 28.4 s, elapsed = 33.1 s, util. = 85.7%.
Time spent in licensing: elapsed = 167 ms.
Peak memory used = 200 Mbytes.
Simulation started at: 10:31:58 PM, Sat Apr 20, 2024, ended at: 10:32:31 PM, Sat Apr 20, 2024, with elapsed time (wall clock): 33.1 s.
spectre completes with 0 errors, 117 warnings, and 210 notices.
