
Spectre (R) Circuit Simulator
Version 21.1.0.751.isr19 64bit -- 22 May 2023
Copyright (C) 1989-2023 Cadence Design Systems, Inc. All rights reserved worldwide. Cadence and Spectre are registered trademarks of Cadence Design Systems, Inc. All others are the property of their respective holders.

Includes RSA BSAFE(R) Cryptographic or Security Protocol Software from RSA Security, Inc.

User: oj23092   Host: it075891.wks.bris.ac.uk   HostID: DE89A69F   PID: 235224
Memory  available: 12.5931 GB  physical: 16.2980 GB
Linux   : Rocky Linux release 8.9 (Green Obsidian)
CPU Type: Intel(R) Core(TM) i7-8700 CPU @ 3.20GHz
        Socket: Processors [Frequency] (Hyperthreaded Processor)
        0:       0 [3200.0] (  6 ),  1 [3200.0] (  7 ),  2 [3200.0] (  8 )
                 3 [3200.0] (  9 ),  4 [3200.0] ( 10 ),  5 [3200.0] ( 11 )
        
System load averages (1min, 5min, 15min) : 12.4 %, 4.2 %, 1.9 %
Hyperthreading is enabled
HPC is enabled


Simulating `input.scs' on it075891.wks.bris.ac.uk at 9:20:38 PM, Sat Apr 20, 2024 (process id: 235224).
Current working directory: /home/oj23092/VLSI_Design_Lab/Sim/lab2024/tb_ycircuit/adexl/results/data/MonteCarlo.0/2/lab2024:tb_ycircuit:1/groupRunDataDir/netlist
Command line:
     \
        /eda/cadence/2022-23/RHELx86/SPECTRE_21.10.751/tools.lnx86/bin/spectre  \
        -64 input.scs +escchars +log ../psf/spectre.out -format psfbin  \
        +rtsf -raw ../psf +aps +mt +lqtimeout 900 -maxw 5 -maxn 5  \
        +param /eda/cadence/ams/4.10/spectre/ams_range.lmts -env ade  \
        -ahdllibdir  \
        /home/oj23092/VLSI_Design_Lab/Sim/lab2024/tb_ycircuit/adexl/results/data/MonteCarlo.0/sharedData/Job1/ahdl/input.ahdlSimDB  \
        +logstatus

Licensing Information:
[21:20:38.289666] Configured Lic search path (21.01-s002): 5280@ls-dc2-fen-p1.services.bris.ac.uk:5280@ls-dc2-fen-p0.services.bris.ac.uk

Licensing Information:
[21:20:39.005457] Periodic Lic check successful

Loading /eda/cadence/2022-23/RHELx86/SPECTRE_21.10.751/tools.lnx86/cmi/lib/64bit/5.0/libinfineon_sh.so ...
Loading /eda/cadence/2022-23/RHELx86/SPECTRE_21.10.751/tools.lnx86/cmi/lib/64bit/5.0/libphilips_o_sh.so ...
Loading /eda/cadence/2022-23/RHELx86/SPECTRE_21.10.751/tools.lnx86/cmi/lib/64bit/5.0/libphilips_sh.so ...
Loading /eda/cadence/2022-23/RHELx86/SPECTRE_21.10.751/tools.lnx86/cmi/lib/64bit/5.0/libsparam_sh.so ...
Loading /eda/cadence/2022-23/RHELx86/SPECTRE_21.10.751/tools.lnx86/cmi/lib/64bit/5.0/libstmodels_sh.so ...
Reading file:  /home/oj23092/VLSI_Design_Lab/Sim/lab2024/tb_ycircuit/adexl/results/data/MonteCarlo.0/2/lab2024:tb_ycircuit:1/groupRunDataDir/netlist/input.scs
Reading file:  /eda/cadence/ams/4.10/spectre/ams_range.lmts

Warning from spectre during read of parameter soft limits file `/eda/cadence/ams/4.10/spectre/ams_range.lmts', during circuit read-in.
    WARNING (SPECTRE-8360): line 1511: `ac' is an undefined primitive device.
    WARNING (SPECTRE-8360): line 1512: `ac' is an undefined primitive device.
    WARNING (SPECTRE-8360): line 1513: `ac' is an undefined primitive device.
    WARNING (SPECTRE-8360): line 1514: `ac' is an undefined primitive device.
    WARNING (SPECTRE-8360): line 1515: `ac' is an undefined primitive device.
        Further occurrences of this warning will be suppressed.

Reading file:  /eda/cadence/2022-23/RHELx86/SPECTRE_21.10.751/tools.lnx86/spectre/etc/configs/spectre.cfg
Reading file:  /eda/cadence/ams/4.10/spectre/c35/soac/soac.scs
Reading file:  /eda/cadence/ams/4.10/spectre/c35/soac/res.scs
Reading file:  /eda/cadence/ams/4.10/spectre/c35/soac/bip.scs
Reading file:  /eda/cadence/ams/4.10/spectre/c35/soac/cap.scs
Reading file:  /eda/cadence/ams/4.10/spectre/c35/soac/esddiode.scs
Reading file:  /eda/cadence/ams/4.10/spectre/c35/soac/ind.scs
Reading file:  /eda/cadence/ams/4.10/spectre/c35/soac/cmos53.scs
Reading file:  /eda/cadence/ams/4.10/spectre/c35/soac/processOption.scs
Reading file:  /eda/cadence/ams/4.10/spectre/c35/soac/process.scs
Reading file:  /eda/cadence/ams/4.10/spectre/c35/soac/soac.va

Warning from spectre during AHDL read-in.
    WARNING (VACOMP-2435): The environment variable CDS_AHDLCMI_ENABLE is no longer supported. Therefore, the simulator will use the default compiled C code flow.

Reading link:  /eda/cadence/2022-23/RHELx86/SPECTRE_21.10.751/tools.lnx86/spectre/etc/ahdl/constants.h
Reading file:  /eda/cadence/2022-23/RHELx86/SPECTRE_21.10.751/tools.lnx86/spectre/etc/ahdl/constants.vams
Reading link:  /eda/cadence/2022-23/RHELx86/SPECTRE_21.10.751/tools.lnx86/spectre/etc/ahdl/discipline.h
Reading file:  /eda/cadence/2022-23/RHELx86/SPECTRE_21.10.751/tools.lnx86/spectre/etc/ahdl/disciplines.vams
Reading file:  /eda/cadence/ams/4.10/spectre/c35/processOption/C35B4C3.scs
Time for NDB Parsing: CPU = 74.356 ms, elapsed = 311.919 ms.
Time accumulated: CPU = 130.974 ms, elapsed = 311.922 ms.
Peak resident memory used = 164 Mbytes.

TCP: opening server port it075891.wks.bris.ac.uk:33769
Existing shared object for module modp_ahdl is up to date.
Installed compiled interface for modp_ahdl.
Existing shared object for module modn_ahdl is up to date.
Installed compiled interface for modn_ahdl.
Time for Elaboration: CPU = 19.962 ms, elapsed = 23.5078 ms.
Time accumulated: CPU = 151 ms, elapsed = 335.496 ms.
Peak resident memory used = 173 Mbytes.


Notice from spectre during hierarchy flattening.
    The value 'psf' specified for the 'checklimitdest' option will no longer be supported in future releases. Use 'spectre -h' to see other recommended values for the 'checklimitdest' option.


Time for EDB Visiting: CPU = 1.343 ms, elapsed = 1.77503 ms.
Time accumulated: CPU = 152.406 ms, elapsed = 337.334 ms.
Peak resident memory used = 175 Mbytes.

Loading /eda/cadence/2022-23/RHELx86/SPECTRE_21.10.751/tools.lnx86/mdl/lib/64bit/libSpectreEH_sh.so ...

Warning from spectre during initial setup.
    WARNING (SPECTRE-16460): SOAC_cvarm_vspsub:Specified subcircuit master `cvarm' was not found.
    WARNING (SPECTRE-16462): SOAC_cvarm_vspsub:Error in specification of subcircuit master. Assert is ignored.
    WARNING (SPECTRE-16460): SOAC_cvarm_vbs:Specified subcircuit master `cvarm' was not found.
    WARNING (SPECTRE-16462): SOAC_cvarm_vbs:Error in specification of subcircuit master. Assert is ignored.
    WARNING (SPECTRE-16460): SOAC_cvarm_vgb:Specified subcircuit master `cvarm' was not found.
    WARNING (SPECTRE-16462): SOAC_cvarm_vgb:Error in specification of subcircuit master. Assert is ignored.
    WARNING (SPECTRE-16460): SOAC_cvart_vspsub:Specified subcircuit master `cvart' was not found.
    WARNING (SPECTRE-16462): SOAC_cvart_vspsub:Error in specification of subcircuit master. Assert is ignored.
    WARNING (SPECTRE-16460): SOAC_cvart_vbs:Specified subcircuit master `cvart' was not found.
        Further occurrences of this warning will be suppressed.
    WARNING (SPECTRE-16462): SOAC_cvart_vbs:Error in specification of subcircuit master. Assert is ignored.
        Further occurrences of this warning will be suppressed.
Notice from spectre during initial setup.
    Ignorevaref=yes is ignored since all nodes are connected to Verilog-A modules.
Notice from spectre during topology check.
    Only one connection to the following 8 nodes:
        I0.MPD.psub!
        I0.MPC.psub!
        I0.MPB.psub!
        I0.MPA.psub!
        I0.MNC.psub!
        Further occurrences of this notice will be suppressed.
Notice from spectre during initial setup.
    Multithreading is disabled due to the size of the design being too small.


Global user options:
         psfversion = 1.4.0
            vabstol = 1e-06
            iabstol = 1e-12
               temp = 27
           homotopy = 5
              limit = delta
         compatible = spice2
               gmin = 1e-12
             rforce = 1
           maxnotes = 5
           maxwarns = 5
             digits = 5
               cols = 80
             pivrel = 0.001
           sensfile = ../psf/sens.output
     checklimitdest = psf
     enable_pre_ver = yes
      ignorezerovar = yes
               save = allpub
             reltol = 0.0001
               tnom = 27
             scalem = 1
              scale = 1

Scoped user options:

Circuit inventory:
              nodes 17
            bsim3v3 8     
          capacitor 1     
          modn_ahdl 4     
          modp_ahdl 4     
            vsource 5     

Analysis and control statement inventory:
               info 7     
         montecarlo 1     
               tran 1     

Output statements:
             .probe 0     
           .measure 0     
               save 1     

Design checks inventory:
          paramtest 8     
             assert 175   


Notice from spectre during initial setup.
    APS enabled.
    1 notice suppressed.
    72 warnings suppressed.

Time for parsing: CPU = 5.626 ms, elapsed = 266.188 ms.
Time accumulated: CPU = 158.084 ms, elapsed = 603.574 ms.
Peak resident memory used = 180 Mbytes.

~~~~~~~~~~~~~~~~~~~~~~
Pre-Simulation Summary
~~~~~~~~~~~~~~~~~~~~~~
   -   (APS) Multi-threading. The recommended number of threads is 1, consider adding +mt=1 on command line.
~~~~~~~~~~~~~~~~~~~~~~

**************************************************
Monte Carlo Analysis `mc1': iteration = (1 -> 200)
**************************************************
Important parameter values:
    seed = 12345
    sampling = lds
    variations = all
    firstrun = 1
    numruns = 200
    nullmfactorcorrelation = no
    donominal = no
    method = standard
Opening iteration number and data-directory mapping file:  /home/oj23092/VLSI_Design_Lab/Sim/lab2024/tb_ycircuit/adexl/results/data/MonteCarlo.0/2/lab2024:tb_ycircuit:1/groupRunDataDir/netlist/../psf/mc1.mapping

Statistical parameters:
    Defined process parameters: 629
    Defined mismatch parameters (subckt based): 86
    Non-referenced mismatch parameters: 82
    Number of random variables: 645
    Gaussian truncation for process parameters: 4.00 sigma
    Gaussian truncation for mismatch parameters: 4.00 sigma


Opening the PSF file ../psf/mc1_tran.montecarlo ...

Opening the PSF file ../psf/mc1_finalTimeOP.montecarlo ...

Opening the PSF file ../psf/mc1_modelParameter.montecarlo ...

Opening the PSF file ../psf/mc1_element.montecarlo ...

Opening the PSF file ../psf/mc1_outputParameter.montecarlo ...

Opening the PSF file ../psf/mc1_designParamVals.montecarlo ...

Opening the PSF file ../psf/mc1_primitives.montecarlo ...

Opening the PSF file ../psf/mc1_subckts.montecarlo ...

**** Performing monte carlo loop for `mc1'

1              0.00% 

Notice from spectre at iteration = 1 during transient analysis `tran', during Monte Carlo analysis `mc1'.
    No checklimit analysis defined for asserts. A default checklimit analysis 'SpectreChecklimitAnal' has been created with all asserts enabled.


************************************************
Transient Analysis `tran': time = (0 s -> 20 ns)
************************************************

Opening the PSF file ../psf/mc1_separate/001/tran.tran.tran ...

Notice from spectre at iteration = 1 during IC analysis, during transient analysis `tran', during Monte Carlo analysis `mc1'.
    GminDC = 1 pS is large enough to noticeably affect the DC solution.
        dV(I0.net3) = 2.90581 mV
        Use the `gmin_check' option to eliminate or expand this report.
Warning from spectre at iteration = 1 during check, during IC analysis, during transient analysis `tran', during Monte Carlo analysis `mc1'.
    WARNING (CMI-2943): Parameter checks have been ignored because the valid value for parameter 'trise' could not be found in 'C0'.

DC simulation time: CPU = 472 us, elapsed = 472.069 us.
Important parameter values:
    start = 0 s
    outputstart = 0 s
    stop = 20 ns
    step = 20 ps
    maxstep = 200 ps
    ic = all
    useprevic = no
    skipdc = no
    reltol = 10e-06
    abstol(V) = 1 uV
    abstol(I) = 1 pA
    temp = 27 C
    tnom = 27 C
    tempeffects = all
    errpreset = conservative
    method = gear2only
    lteratio = 10
    relref = alllocal
    cmin = 0 F
    gmin = 1 pS
    rabsshort = 1 mOhm


Notice from spectre at iteration = 1 during transient analysis `tran', during Monte Carlo analysis `mc1'.
    Multithreading is disabled due to the size of the design being too small.


Output and IC/nodeset summary:
                 save   5       (current)
                 save   17      (voltage)


Opening the PSF file ../psf/mc1_tranViolations.montecarlo ...
    tran: time = 520.2 ps     (2.6 %), step = 24.37 ps     (122 m%)
    tran: time = 1.514 ns    (7.57 %), step = 28.09 ps     (140 m%)
    tran: time = 2.509 ns    (12.5 %), step = 28.62 ps     (143 m%)
    tran: time = 3.514 ns    (17.6 %), step = 31.41 ps     (157 m%)
    tran: time = 4.517 ns    (22.6 %), step = 18.46 ps    (92.3 m%)
    tran: time = 5.503 ns    (27.5 %), step = 7.471 ps    (37.4 m%)
SOAC: I0.MND.soac_m1       modn V(B,PSUB): LEAVING@  0.00500322us ;
SOAC: I0.MNA.soac_m1       modn V(B,PSUB): LEAVING@  0.00500876us ;
SOAC: I0.MNA.soac_m1       modn V(B,PSUB): ENTERING@ 0.00619489us duration:0.00119us ;
SOAC: I0.MND.soac_m1       modn V(B,PSUB): ENTERING@ 0.00619718us duration:0.00119us ;
    tran: time = 6.512 ns    (32.6 %), step = 16.07 ps    (80.3 m%)
    tran: time = 7.543 ns    (37.7 %), step = 45.27 ps     (226 m%)
    tran: time = 8.514 ns    (42.6 %), step = 15.95 ps    (79.7 m%)
    tran: time = 9.508 ns    (47.5 %), step = 11.28 ps    (56.4 m%)
SOAC: I0.MND.soac_m1       modn V(B,PSUB): LEAVING@  0.00900328us ;
SOAC: I0.MNA.soac_m1       modn V(B,PSUB): LEAVING@  0.00900889us ;
SOAC: I0.MNA.soac_m1       modn V(B,PSUB): ENTERING@ 0.0101748us duration:0.00117us ;
    tran: time = 10.5 ns     (52.5 %), step = 16.47 ps    (82.3 m%)
SOAC: I0.MND.soac_m1       modn V(B,PSUB): ENTERING@ 0.0113136us duration:0.00231us ;
    tran: time = 11.53 ns    (57.6 %), step = 39.76 ps     (199 m%)
    tran: time = 12.51 ns    (62.5 %), step = 17.96 ps    (89.8 m%)
SOAC: I0.MND.soac_m1       modn V(B,PSUB): LEAVING@  0.0122033us ;
    tran: time = 13.51 ns    (67.5 %), step = 25.23 ps     (126 m%)
    tran: time = 14.5 ns     (72.5 %), step = 29.98 ps     (150 m%)
SOAC: I0.MND.soac_m1       modn V(B,PSUB): ENTERING@ 0.0153193us duration:0.00312us ;
    tran: time = 15.53 ns    (77.6 %), step = 39.01 ps     (195 m%)
    tran: time = 16.51 ns    (82.5 %), step = 17.96 ps    (89.8 m%)
SOAC: I0.MND.soac_m1       modn V(B,PSUB): LEAVING@  0.0162033us ;
    tran: time = 17.51 ns    (87.5 %), step = 25.5 ps      (128 m%)
    tran: time = 18.5 ns     (92.5 %), step = 29.98 ps     (150 m%)
SOAC: I0.MND.soac_m1       modn V(B,PSUB): ENTERING@ 0.0193193us duration:0.00312us ;
    tran: time = 19.53 ns    (97.6 %), step = 39.01 ps     (195 m%)
Number of accepted tran steps =             2739

Maximum value achieved for any signal of each quantity: 
V: V(I0.net1) = 3.62 V
I: I(V:p) = 435.3 uA

~~~~~~~~~~~~~~~~~~~~~~~~~~~~~~~~~
Post-Transient Simulation Summary
~~~~~~~~~~~~~~~~~~~~~~~~~~~~~~~~~
   -   To further speed up simulation, consider
          add ++aps on command line
   -   Non-default settings that could significantly slow down simulation
          errpreset = conservative, default moderate
          reltol = 10e-06, default 100e-06 (conservative)
   -   Features that may significantly slowing down simulation
          asserts = 59.9585 ms
~~~~~~~~~~~~~~~~~~~~~~~~~~~~~~~~~


During simulation, the CPU load for active processors is :
         1 (1.1 %)       2 (13.3 %)      3 (1.1 %)       4 (26.1 %)
         6 (3.3 %)       7 (2.2 %)       8 (4.3 %)       9 (17.4 %)
        10 (9.9 %)      11 (3.3 %)      
        Total: 81.9%
Initial condition solution time: CPU = 493 us, elapsed = 494.003 us.
Intrinsic tran analysis time:    CPU = 288.253 ms, elapsed = 302.774 ms.
Total time required for tran analysis `tran': CPU = 291.264 ms, elapsed = 322.741 ms, util. = 90.2%.
Time accumulated: CPU = 468.791 ms, elapsed = 967.816 ms.
Peak resident memory used = 196 Mbytes.

finalTimeOP: writing operating point information to rawfile.

Opening the PSF file ../psf/mc1_separate/001/finalTimeOP.info ...
modelParameter: writing model parameter values to rawfile.

Opening the PSF file ../psf/mc1_separate/001/modelParameter.info ...
element: writing instance parameter values to rawfile.

Opening the PSF file ../psf/mc1_separate/001/element.info ...
outputParameter: writing output parameter values to rawfile.

Opening the PSF file ../psf/mc1_separate/001/outputParameter.info ...
designParamVals: writing netlist parameters to rawfile.

Opening the PSFASCII file ../psf/mc1_separate/001/designParamVals.info ...
primitives: writing primitives to rawfile.

Opening the PSFASCII file ../psf/mc1_separate/001/primitives.info.primitives ...
subckts: writing subcircuits to rawfile.

Opening the PSFASCII file ../psf/mc1_separate/001/subckts.info.subckts ...
2              0.50% 

************************************************
Transient Analysis `tran': time = (0 s -> 20 ns)
************************************************

Opening the PSF file ../psf/mc1_separate/002/tran.tran.tran ...

Notice from spectre during IC analysis, during transient analysis `tran', during Monte Carlo analysis `mc1'.
    GminDC = 1 pS is large enough to noticeably affect the DC solution.
        dV(I0.net3) = 1.86878 mV
        Use the `gmin_check' option to eliminate or expand this report.
Warning from spectre during check, during IC analysis, during transient analysis `tran', during Monte Carlo analysis `mc1'.
    WARNING (CMI-2943): Parameter checks have been ignored because the valid value for parameter 'trise' could not be found in 'C0'.

DC simulation time: CPU = 379 us, elapsed = 381.947 us.
Important parameter values:
    start = 0 s
    outputstart = 0 s
    stop = 20 ns
    step = 20 ps
    maxstep = 200 ps
    ic = all
    useprevic = no
    skipdc = no
    reltol = 10e-06
    abstol(V) = 1 uV
    abstol(I) = 1 pA
    temp = 27 C
    tnom = 27 C
    tempeffects = all
    errpreset = conservative
    method = gear2only
    lteratio = 10
    relref = alllocal
    cmin = 0 F
    gmin = 1 pS
    rabsshort = 1 mOhm


Notice from spectre during transient analysis `tran', during Monte Carlo analysis `mc1'.
    Multithreading is disabled due to the size of the design being too small.


Output and IC/nodeset summary:
                 save   5       (current)
                 save   17      (voltage)

    tran: time = 511 ps      (2.56 %), step = 27.57 ps     (138 m%)
    tran: time = 1.521 ns     (7.6 %), step = 27.03 ps     (135 m%)
    tran: time = 2.502 ns    (12.5 %), step = 27.91 ps     (140 m%)
    tran: time = 3.509 ns    (17.5 %), step = 31.13 ps     (156 m%)
    tran: time = 4.508 ns    (22.5 %), step = 17.66 ps    (88.3 m%)
    tran: time = 5.503 ns    (27.5 %), step = 7.242 ps    (36.2 m%)
SOAC: I0.MND.soac_m1       modn V(B,PSUB): LEAVING@  0.0050032us ;
SOAC: I0.MNA.soac_m1       modn V(B,PSUB): LEAVING@  0.00500881us ;
SOAC: I0.MNA.soac_m1       modn V(B,PSUB): ENTERING@ 0.00619367us duration:0.00118us ;
SOAC: I0.MND.soac_m1       modn V(B,PSUB): ENTERING@ 0.00619592us duration:0.00119us ;
    tran: time = 6.509 ns    (32.5 %), step = 15.9 ps     (79.5 m%)
    tran: time = 7.508 ns    (37.5 %), step = 34.22 ps     (171 m%)
    tran: time = 8.51 ns     (42.6 %), step = 15.8 ps       (79 m%)
    tran: time = 9.508 ns    (47.5 %), step = 10.97 ps    (54.8 m%)
SOAC: I0.MND.soac_m1       modn V(B,PSUB): LEAVING@  0.00900327us ;
SOAC: I0.MNA.soac_m1       modn V(B,PSUB): LEAVING@  0.00900889us ;
SOAC: I0.MNA.soac_m1       modn V(B,PSUB): ENTERING@ 0.0101743us duration:0.00117us ;
SOAC: I0.MND.soac_m1       modn V(B,PSUB): ENTERING@ 0.0101995us duration:0.0012us ;
    tran: time = 10.5 ns     (52.5 %), step = 16.76 ps    (83.8 m%)
SOAC: I0.MND.soac_m1       modn V(B,PSUB): LEAVING@  0.0102003us ;
SOAC: I0.MND.soac_m1       modn V(B,PSUB): ENTERING@ 0.0113144us duration:0.00111us ;
    tran: time = 11.53 ns    (57.6 %), step = 39.67 ps     (198 m%)
    tran: time = 12.51 ns    (62.5 %), step = 18.08 ps    (90.4 m%)
SOAC: I0.MND.soac_m1       modn V(B,PSUB): LEAVING@  0.0122038us ;
    tran: time = 13.52 ns    (67.6 %), step = 25.73 ps     (129 m%)
    tran: time = 14.53 ns    (72.6 %), step = 35.34 ps     (177 m%)
SOAC: I0.MND.soac_m1       modn V(B,PSUB): ENTERING@ 0.0153195us duration:0.00312us ;
    tran: time = 15.53 ns    (77.6 %), step = 39.28 ps     (196 m%)
    tran: time = 16.51 ns    (82.5 %), step = 18.17 ps    (90.8 m%)
SOAC: I0.MND.soac_m1       modn V(B,PSUB): LEAVING@  0.0162038us ;
    tran: time = 17.5 ns     (87.5 %), step = 26.94 ps     (135 m%)
    tran: time = 18.53 ns    (92.6 %), step = 35.34 ps     (177 m%)
SOAC: I0.MND.soac_m1       modn V(B,PSUB): ENTERING@ 0.0193195us duration:0.00312us ;
    tran: time = 19.53 ns    (97.6 %), step = 39.28 ps     (196 m%)
Number of accepted tran steps =             2752

Maximum value achieved for any signal of each quantity: 
V: V(I0.net1) = 3.619 V
I: I(V:p) = 437.3 uA

~~~~~~~~~~~~~~~~~~~~~~~~~~~~~~~~~
Post-Transient Simulation Summary
~~~~~~~~~~~~~~~~~~~~~~~~~~~~~~~~~
   -   To further speed up simulation, consider
          add ++aps on command line
   -   Non-default settings that could significantly slow down simulation
          errpreset = conservative, default moderate
          reltol = 10e-06, default 100e-06 (conservative)
~~~~~~~~~~~~~~~~~~~~~~~~~~~~~~~~~


During simulation, the CPU load for active processors is :
         2 (9.7 %)       3 (2.4 %)       4 (41.9 %)      6 (2.4 %)
         7 (1.6 %)       8 (3.2 %)       9 (12.8 %)     10 (7.3 %)
        11 (3.2 %)      
        Total: 86.0%
Initial condition solution time: CPU = 395 us, elapsed = 399.113 us.
Intrinsic tran analysis time:    CPU = 260.727 ms, elapsed = 269.653 ms.
Total time required for tran analysis `tran': CPU = 262.205 ms, elapsed = 279.167 ms, util. = 93.9%.
Time accumulated: CPU = 743.489 ms, elapsed = 1.2879 s.
Peak resident memory used = 197 Mbytes.

finalTimeOP: writing operating point information to rawfile.

Opening the PSF file ../psf/mc1_separate/002/finalTimeOP.info ...
modelParameter: writing model parameter values to rawfile.

Opening the PSF file ../psf/mc1_separate/002/modelParameter.info ...
element: writing instance parameter values to rawfile.

Opening the PSF file ../psf/mc1_separate/002/element.info ...
outputParameter: writing output parameter values to rawfile.

Opening the PSF file ../psf/mc1_separate/002/outputParameter.info ...
designParamVals: writing netlist parameters to rawfile.

Opening the PSFASCII file ../psf/mc1_separate/002/designParamVals.info ...
primitives: writing primitives to rawfile.

Opening the PSFASCII file ../psf/mc1_separate/002/primitives.info.primitives ...
subckts: writing subcircuits to rawfile.

Opening the PSFASCII file ../psf/mc1_separate/002/subckts.info.subckts ...
3              1.01% 

************************************************
Transient Analysis `tran': time = (0 s -> 20 ns)
************************************************

Opening the PSF file ../psf/mc1_separate/003/tran.tran.tran ...

Notice from spectre during IC analysis, during transient analysis `tran', during Monte Carlo analysis `mc1'.
    GminDC = 1 pS is large enough to noticeably affect the DC solution.
        dV(I0.net3) = 3.58729 mV
        Use the `gmin_check' option to eliminate or expand this report.
Warning from spectre during check, during IC analysis, during transient analysis `tran', during Monte Carlo analysis `mc1'.
    WARNING (CMI-2943): Parameter checks have been ignored because the valid value for parameter 'trise' could not be found in 'C0'.

DC simulation time: CPU = 410 us, elapsed = 411.034 us.
Important parameter values:
    start = 0 s
    outputstart = 0 s
    stop = 20 ns
    step = 20 ps
    maxstep = 200 ps
    ic = all
    useprevic = no
    skipdc = no
    reltol = 10e-06
    abstol(V) = 1 uV
    abstol(I) = 1 pA
    temp = 27 C
    tnom = 27 C
    tempeffects = all
    errpreset = conservative
    method = gear2only
    lteratio = 10
    relref = alllocal
    cmin = 0 F
    gmin = 1 pS
    rabsshort = 1 mOhm


Notice from spectre during transient analysis `tran', during Monte Carlo analysis `mc1'.
    Multithreading is disabled due to the size of the design being too small.


Output and IC/nodeset summary:
                 save   5       (current)
                 save   17      (voltage)

    tran: time = 513.1 ps    (2.57 %), step = 27.7 ps      (138 m%)
    tran: time = 1.528 ns    (7.64 %), step = 30.37 ps     (152 m%)
    tran: time = 2.519 ns    (12.6 %), step = 29.65 ps     (148 m%)
    tran: time = 3.519 ns    (17.6 %), step = 31.7 ps      (158 m%)
    tran: time = 4.505 ns    (22.5 %), step = 17.41 ps      (87 m%)
    tran: time = 5.504 ns    (27.5 %), step = 14.86 ps    (74.3 m%)
SOAC: I0.MND.soac_m1       modn V(B,PSUB): LEAVING@  0.00500321us ;
SOAC: I0.MNA.soac_m1       modn V(B,PSUB): LEAVING@  0.00500882us ;
SOAC: I0.MNA.soac_m1       modn V(B,PSUB): ENTERING@ 0.00619472us duration:0.00119us ;
SOAC: I0.MND.soac_m1       modn V(B,PSUB): ENTERING@ 0.00619709us duration:0.00119us ;
    tran: time = 6.5 ns      (32.5 %), step = 8.131 ps    (40.7 m%)
    tran: time = 7.512 ns    (37.6 %), step = 36.04 ps     (180 m%)
    tran: time = 8.504 ns    (42.5 %), step = 15.51 ps    (77.5 m%)
    tran: time = 9.507 ns    (47.5 %), step = 11.18 ps    (55.9 m%)
SOAC: I0.MND.soac_m1       modn V(B,PSUB): LEAVING@  0.00900327us ;
SOAC: I0.MNA.soac_m1       modn V(B,PSUB): LEAVING@  0.00900896us ;
SOAC: I0.MNA.soac_m1       modn V(B,PSUB): ENTERING@ 0.0101745us duration:0.00117us ;
    tran: time = 10.52 ns    (52.6 %), step = 18.06 ps    (90.3 m%)
SOAC: I0.MND.soac_m1       modn V(B,PSUB): ENTERING@ 0.0113153us duration:0.00231us ;
    tran: time = 11.53 ns    (57.7 %), step = 40.49 ps     (202 m%)
    tran: time = 12.51 ns    (62.6 %), step = 18.12 ps    (90.6 m%)
SOAC: I0.MND.soac_m1       modn V(B,PSUB): LEAVING@  0.0122038us ;
    tran: time = 13.53 ns    (67.6 %), step = 25.76 ps     (129 m%)
    tran: time = 14.53 ns    (72.7 %), step = 35.09 ps     (175 m%)
SOAC: I0.MND.soac_m1       modn V(B,PSUB): ENTERING@ 0.0153211us duration:0.00312us ;
    tran: time = 15.54 ns    (77.7 %), step = 40.5 ps      (202 m%)
    tran: time = 16.51 ns    (82.5 %), step = 17.97 ps    (89.9 m%)
SOAC: I0.MND.soac_m1       modn V(B,PSUB): LEAVING@  0.0162038us ;
    tran: time = 17.52 ns    (87.6 %), step = 25.43 ps     (127 m%)
    tran: time = 18.53 ns    (92.7 %), step = 35.14 ps     (176 m%)
SOAC: I0.MND.soac_m1       modn V(B,PSUB): ENTERING@ 0.0193211us duration:0.00312us ;
    tran: time = 19.54 ns    (97.7 %), step = 40.5 ps      (202 m%)
Number of accepted tran steps =             2767

Maximum value achieved for any signal of each quantity: 
V: V(I0.net1) = 3.621 V
I: I(V:p) = 430.8 uA

~~~~~~~~~~~~~~~~~~~~~~~~~~~~~~~~~
Post-Transient Simulation Summary
~~~~~~~~~~~~~~~~~~~~~~~~~~~~~~~~~
   -   To further speed up simulation, consider
          add ++aps on command line
   -   Non-default settings that could significantly slow down simulation
          errpreset = conservative, default moderate
          reltol = 10e-06, default 100e-06 (conservative)
~~~~~~~~~~~~~~~~~~~~~~~~~~~~~~~~~


During simulation, the CPU load for active processors is :
         2 (7.7 %)       3 (1.9 %)       4 (50.6 %)      6 (1.9 %)
         7 (1.3 %)       8 (2.5 %)       9 (10.2 %)     10 (5.8 %)
        11 (3.2 %)      
        Total: 86.5%
Initial condition solution time: CPU = 442 us, elapsed = 442.982 us.
Intrinsic tran analysis time:    CPU = 257.603 ms, elapsed = 266.223 ms.
Total time required for tran analysis `tran': CPU = 259.441 ms, elapsed = 276.32 ms, util. = 93.9%.
Time accumulated: CPU = 1.01529 s, elapsed = 1.60526 s.
Peak resident memory used = 197 Mbytes.

finalTimeOP: writing operating point information to rawfile.

Opening the PSF file ../psf/mc1_separate/003/finalTimeOP.info ...
modelParameter: writing model parameter values to rawfile.

Opening the PSF file ../psf/mc1_separate/003/modelParameter.info ...
element: writing instance parameter values to rawfile.

Opening the PSF file ../psf/mc1_separate/003/element.info ...
outputParameter: writing output parameter values to rawfile.

Opening the PSF file ../psf/mc1_separate/003/outputParameter.info ...
designParamVals: writing netlist parameters to rawfile.

Opening the PSFASCII file ../psf/mc1_separate/003/designParamVals.info ...
primitives: writing primitives to rawfile.

Opening the PSFASCII file ../psf/mc1_separate/003/primitives.info.primitives ...
subckts: writing subcircuits to rawfile.

Opening the PSFASCII file ../psf/mc1_separate/003/subckts.info.subckts ...
4              1.51% 

************************************************
Transient Analysis `tran': time = (0 s -> 20 ns)
************************************************

Opening the PSF file ../psf/mc1_separate/004/tran.tran.tran ...

Notice from spectre during IC analysis, during transient analysis `tran', during Monte Carlo analysis `mc1'.
    GminDC = 1 pS is large enough to noticeably affect the DC solution.
        dV(I0.net3) = 3.28831 mV
        Use the `gmin_check' option to eliminate or expand this report.
Warning from spectre during check, during IC analysis, during transient analysis `tran', during Monte Carlo analysis `mc1'.
    WARNING (CMI-2943): Parameter checks have been ignored because the valid value for parameter 'trise' could not be found in 'C0'.

DC simulation time: CPU = 498 us, elapsed = 501.156 us.
Important parameter values:
    start = 0 s
    outputstart = 0 s
    stop = 20 ns
    step = 20 ps
    maxstep = 200 ps
    ic = all
    useprevic = no
    skipdc = no
    reltol = 10e-06
    abstol(V) = 1 uV
    abstol(I) = 1 pA
    temp = 27 C
    tnom = 27 C
    tempeffects = all
    errpreset = conservative
    method = gear2only
    lteratio = 10
    relref = alllocal
    cmin = 0 F
    gmin = 1 pS
    rabsshort = 1 mOhm


Notice from spectre during transient analysis `tran', during Monte Carlo analysis `mc1'.
    Multithreading is disabled due to the size of the design being too small.


Output and IC/nodeset summary:
                 save   5       (current)
                 save   17      (voltage)

    tran: time = 505.5 ps    (2.53 %), step = 26.87 ps     (134 m%)
    tran: time = 1.519 ns     (7.6 %), step = 26.53 ps     (133 m%)
    tran: time = 2.512 ns    (12.6 %), step = 29.56 ps     (148 m%)
    tran: time = 3.509 ns    (17.5 %), step = 30.92 ps     (155 m%)
    tran: time = 4.506 ns    (22.5 %), step = 17.46 ps    (87.3 m%)
    tran: time = 5.51 ns     (27.5 %), step = 14.94 ps    (74.7 m%)
SOAC: I0.MND.soac_m1       modn V(B,PSUB): LEAVING@  0.00500321us ;
SOAC: I0.MNA.soac_m1       modn V(B,PSUB): LEAVING@  0.00500887us ;
SOAC: I0.MNA.soac_m1       modn V(B,PSUB): ENTERING@ 0.00619404us duration:0.00119us ;
SOAC: I0.MND.soac_m1       modn V(B,PSUB): ENTERING@ 0.00619637us duration:0.00119us ;
    tran: time = 6.504 ns    (32.5 %), step = 19.89 ps    (99.5 m%)
    tran: time = 7.501 ns    (37.5 %), step = 32.47 ps     (162 m%)
    tran: time = 8.507 ns    (42.5 %), step = 15.62 ps    (78.1 m%)
    tran: time = 9.506 ns    (47.5 %), step = 11.21 ps      (56 m%)
SOAC: I0.MND.soac_m1       modn V(B,PSUB): LEAVING@  0.00900328us ;
SOAC: I0.MNA.soac_m1       modn V(B,PSUB): LEAVING@  0.00900897us ;
SOAC: I0.MNA.soac_m1       modn V(B,PSUB): ENTERING@ 0.0101743us duration:0.00117us ;
    tran: time = 10.52 ns    (52.6 %), step = 18.66 ps    (93.3 m%)
SOAC: I0.MND.soac_m1       modn V(B,PSUB): ENTERING@ 0.0113151us duration:0.00231us ;
    tran: time = 11.53 ns    (57.6 %), step = 39.82 ps     (199 m%)
    tran: time = 12.5 ns     (62.5 %), step = 17.47 ps    (87.3 m%)
SOAC: I0.MND.soac_m1       modn V(B,PSUB): LEAVING@  0.0122039us ;
    tran: time = 13.52 ns    (67.6 %), step = 25.45 ps     (127 m%)
    tran: time = 14.52 ns    (72.6 %), step = 32.86 ps     (164 m%)
SOAC: I0.MND.soac_m1       modn V(B,PSUB): ENTERING@ 0.0153205us duration:0.00312us ;
    tran: time = 15.53 ns    (77.7 %), step = 39.6 ps      (198 m%)
    tran: time = 16.51 ns    (82.5 %), step = 17.73 ps    (88.6 m%)
SOAC: I0.MND.soac_m1       modn V(B,PSUB): LEAVING@  0.0162039us ;
    tran: time = 17.52 ns    (87.6 %), step = 25.46 ps     (127 m%)
    tran: time = 18.52 ns    (92.6 %), step = 32.87 ps     (164 m%)
SOAC: I0.MND.soac_m1       modn V(B,PSUB): ENTERING@ 0.0193205us duration:0.00312us ;
    tran: time = 19.53 ns    (97.7 %), step = 39.6 ps      (198 m%)
Number of accepted tran steps =             2742

Maximum value achieved for any signal of each quantity: 
V: V(I0.net1) = 3.62 V
I: I(V:p) = 432.5 uA

~~~~~~~~~~~~~~~~~~~~~~~~~~~~~~~~~
Post-Transient Simulation Summary
~~~~~~~~~~~~~~~~~~~~~~~~~~~~~~~~~
   -   To further speed up simulation, consider
          add ++aps on command line
   -   Non-default settings that could significantly slow down simulation
          errpreset = conservative, default moderate
          reltol = 10e-06, default 100e-06 (conservative)
~~~~~~~~~~~~~~~~~~~~~~~~~~~~~~~~~


During simulation, the CPU load for active processors is :
         2 (6.4 %)       3 (1.6 %)       4 (56.9 %)      6 (1.6 %)
         7 (1.1 %)       8 (2.1 %)       9 (8.5 %)      10 (4.8 %)
        11 (2.6 %)      
        Total: 87.2%
Initial condition solution time: CPU = 513 us, elapsed = 516.891 us.
Intrinsic tran analysis time:    CPU = 258.062 ms, elapsed = 265.77 ms.
Total time required for tran analysis `tran': CPU = 259.786 ms, elapsed = 276.654 ms, util. = 93.9%.
Time accumulated: CPU = 1.28841 s, elapsed = 1.92532 s.
Peak resident memory used = 197 Mbytes.

finalTimeOP: writing operating point information to rawfile.

Opening the PSF file ../psf/mc1_separate/004/finalTimeOP.info ...
modelParameter: writing model parameter values to rawfile.

Opening the PSF file ../psf/mc1_separate/004/modelParameter.info ...
element: writing instance parameter values to rawfile.

Opening the PSF file ../psf/mc1_separate/004/element.info ...
outputParameter: writing output parameter values to rawfile.

Opening the PSF file ../psf/mc1_separate/004/outputParameter.info ...
designParamVals: writing netlist parameters to rawfile.

Opening the PSFASCII file ../psf/mc1_separate/004/designParamVals.info ...
primitives: writing primitives to rawfile.

Opening the PSFASCII file ../psf/mc1_separate/004/primitives.info.primitives ...
subckts: writing subcircuits to rawfile.

Opening the PSFASCII file ../psf/mc1_separate/004/subckts.info.subckts ...
5              2.01% 

************************************************
Transient Analysis `tran': time = (0 s -> 20 ns)
************************************************

Opening the PSF file ../psf/mc1_separate/005/tran.tran.tran ...

Notice from spectre during IC analysis, during transient analysis `tran', during Monte Carlo analysis `mc1'.
    GminDC = 1 pS is large enough to noticeably affect the DC solution.
        dV(I0.net3) = 3.8552 mV
        Use the `gmin_check' option to eliminate or expand this report.
Warning from spectre during check, during IC analysis, during transient analysis `tran', during Monte Carlo analysis `mc1'.
    WARNING (CMI-2943): Parameter checks have been ignored because the valid value for parameter 'trise' could not be found in 'C0'.

DC simulation time: CPU = 353 us, elapsed = 355.005 us.
Important parameter values:
    start = 0 s
    outputstart = 0 s
    stop = 20 ns
    step = 20 ps
    maxstep = 200 ps
    ic = all
    useprevic = no
    skipdc = no
    reltol = 10e-06
    abstol(V) = 1 uV
    abstol(I) = 1 pA
    temp = 27 C
    tnom = 27 C
    tempeffects = all
    errpreset = conservative
    method = gear2only
    lteratio = 10
    relref = alllocal
    cmin = 0 F
    gmin = 1 pS
    rabsshort = 1 mOhm


Notice from spectre during transient analysis `tran', during Monte Carlo analysis `mc1'.
    Multithreading is disabled due to the size of the design being too small.


Output and IC/nodeset summary:
                 save   5       (current)
                 save   17      (voltage)

    tran: time = 516.2 ps    (2.58 %), step = 25.02 ps     (125 m%)
    tran: time = 1.516 ns    (7.58 %), step = 26.45 ps     (132 m%)
    tran: time = 2.508 ns    (12.5 %), step = 29.28 ps     (146 m%)
    tran: time = 3.523 ns    (17.6 %), step = 32.71 ps     (164 m%)
    tran: time = 4.504 ns    (22.5 %), step = 17.42 ps    (87.1 m%)
    tran: time = 5.503 ns    (27.5 %), step = 14.81 ps    (74.1 m%)
SOAC: I0.MND.soac_m1       modn V(B,PSUB): LEAVING@  0.00500323us ;
SOAC: I0.MNA.soac_m1       modn V(B,PSUB): LEAVING@  0.00500877us ;
SOAC: I0.MNA.soac_m1       modn V(B,PSUB): ENTERING@ 0.00619504us duration:0.00119us ;
SOAC: I0.MND.soac_m1       modn V(B,PSUB): ENTERING@ 0.00619743us duration:0.00119us ;
    tran: time = 6.507 ns    (32.5 %), step = 19.93 ps    (99.6 m%)
    tran: time = 7.514 ns    (37.6 %), step = 36.58 ps     (183 m%)
    tran: time = 8.512 ns    (42.6 %), step = 15.88 ps    (79.4 m%)
    tran: time = 9.507 ns    (47.5 %), step = 11.44 ps    (57.2 m%)
SOAC: I0.MND.soac_m1       modn V(B,PSUB): LEAVING@  0.0090033us ;
SOAC: I0.MNA.soac_m1       modn V(B,PSUB): LEAVING@  0.0090089us ;
SOAC: I0.MNA.soac_m1       modn V(B,PSUB): ENTERING@ 0.0101751us duration:0.00117us ;
    tran: time = 10.5 ns     (52.5 %), step = 16.4 ps       (82 m%)
SOAC: I0.MND.soac_m1       modn V(B,PSUB): ENTERING@ 0.0113153us duration:0.00231us ;
    tran: time = 11.53 ns    (57.6 %), step = 40.01 ps     (200 m%)
    tran: time = 12.51 ns    (62.5 %), step = 18.23 ps    (91.1 m%)
SOAC: I0.MND.soac_m1       modn V(B,PSUB): LEAVING@  0.0122027us ;
    tran: time = 13.51 ns    (67.6 %), step = 25.36 ps     (127 m%)
    tran: time = 14.53 ns    (72.6 %), step = 34.54 ps     (173 m%)
SOAC: I0.MND.soac_m1       modn V(B,PSUB): ENTERING@ 0.0153213us duration:0.00312us ;
    tran: time = 15.54 ns    (77.7 %), step = 40.24 ps     (201 m%)
    tran: time = 16.51 ns    (82.6 %), step = 18.34 ps    (91.7 m%)
SOAC: I0.MND.soac_m1       modn V(B,PSUB): LEAVING@  0.0162027us ;
    tran: time = 17.5 ns     (87.5 %), step = 25.33 ps     (127 m%)
    tran: time = 18.52 ns    (92.6 %), step = 33.66 ps     (168 m%)
SOAC: I0.MND.soac_m1       modn V(B,PSUB): ENTERING@ 0.019321us duration:0.00312us ;
    tran: time = 19.51 ns    (97.5 %), step = 34.74 ps     (174 m%)
Number of accepted tran steps =             2748

Maximum value achieved for any signal of each quantity: 
V: V(I0.net1) = 3.621 V
I: I(V:p) = 435.4 uA

~~~~~~~~~~~~~~~~~~~~~~~~~~~~~~~~~
Post-Transient Simulation Summary
~~~~~~~~~~~~~~~~~~~~~~~~~~~~~~~~~
   -   To further speed up simulation, consider
          add ++aps on command line
   -   Non-default settings that could significantly slow down simulation
          errpreset = conservative, default moderate
          reltol = 10e-06, default 100e-06 (conservative)
~~~~~~~~~~~~~~~~~~~~~~~~~~~~~~~~~


During simulation, the CPU load for active processors is :
         0 (1.8 %)       2 (6.3 %)       3 (2.2 %)       4 (49.3 %)
         6 (1.8 %)       7 (1.3 %)       8 (4.9 %)       9 (11.1 %)
        10 (4.5 %)      11 (14.3 %)     
        Total: 99.0%
Initial condition solution time: CPU = 369 us, elapsed = 370.979 us.
Intrinsic tran analysis time:    CPU = 275.283 ms, elapsed = 292.391 ms.
Total time required for tran analysis `tran': CPU = 276.782 ms, elapsed = 301.134 ms, util. = 91.9%.
Time accumulated: CPU = 1.57917 s, elapsed = 2.27165 s.
Peak resident memory used = 197 Mbytes.

finalTimeOP: writing operating point information to rawfile.

Opening the PSF file ../psf/mc1_separate/005/finalTimeOP.info ...
modelParameter: writing model parameter values to rawfile.

Opening the PSF file ../psf/mc1_separate/005/modelParameter.info ...
element: writing instance parameter values to rawfile.

Opening the PSF file ../psf/mc1_separate/005/element.info ...
outputParameter: writing output parameter values to rawfile.

Opening the PSF file ../psf/mc1_separate/005/outputParameter.info ...
designParamVals: writing netlist parameters to rawfile.

Opening the PSFASCII file ../psf/mc1_separate/005/designParamVals.info ...
primitives: writing primitives to rawfile.

Opening the PSFASCII file ../psf/mc1_separate/005/primitives.info.primitives ...
subckts: writing subcircuits to rawfile.

Opening the PSFASCII file ../psf/mc1_separate/005/subckts.info.subckts ...
6              2.51% 

************************************************
Transient Analysis `tran': time = (0 s -> 20 ns)
************************************************

Opening the PSF file ../psf/mc1_separate/006/tran.tran.tran ...

Notice from spectre during IC analysis, during transient analysis `tran', during Monte Carlo analysis `mc1'.
    GminDC = 1 pS is large enough to noticeably affect the DC solution.
        dV(I0.net3) = 4.17752 mV
        Use the `gmin_check' option to eliminate or expand this report.
Warning from spectre during check, during IC analysis, during transient analysis `tran', during Monte Carlo analysis `mc1'.
    WARNING (CMI-2943): Parameter checks have been ignored because the valid value for parameter 'trise' could not be found in 'C0'.

DC simulation time: CPU = 408 us, elapsed = 412.941 us.
Important parameter values:
    start = 0 s
    outputstart = 0 s
    stop = 20 ns
    step = 20 ps
    maxstep = 200 ps
    ic = all
    useprevic = no
    skipdc = no
    reltol = 10e-06
    abstol(V) = 1 uV
    abstol(I) = 1 pA
    temp = 27 C
    tnom = 27 C
    tempeffects = all
    errpreset = conservative
    method = gear2only
    lteratio = 10
    relref = alllocal
    cmin = 0 F
    gmin = 1 pS
    rabsshort = 1 mOhm


Notice from spectre during transient analysis `tran', during Monte Carlo analysis `mc1'.
    Multithreading is disabled due to the size of the design being too small.


Output and IC/nodeset summary:
                 save   5       (current)
                 save   17      (voltage)

    tran: time = 509.9 ps    (2.55 %), step = 27.46 ps     (137 m%)
    tran: time = 1.517 ns    (7.59 %), step = 26.5 ps      (133 m%)
    tran: time = 2.508 ns    (12.5 %), step = 28.58 ps     (143 m%)
    tran: time = 3.521 ns    (17.6 %), step = 32.57 ps     (163 m%)
    tran: time = 4.515 ns    (22.6 %), step = 18.28 ps    (91.4 m%)
    tran: time = 5.507 ns    (27.5 %), step = 15.01 ps      (75 m%)
SOAC: I0.MND.soac_m1       modn V(B,PSUB): LEAVING@  0.00500321us ;
SOAC: I0.MNA.soac_m1       modn V(B,PSUB): LEAVING@  0.00500886us ;
SOAC: I0.MNA.soac_m1       modn V(B,PSUB): ENTERING@ 0.00619469us duration:0.00119us ;
SOAC: I0.MND.soac_m1       modn V(B,PSUB): ENTERING@ 0.00619713us duration:0.00119us ;
    tran: time = 6.512 ns    (32.6 %), step = 16.12 ps    (80.6 m%)
    tran: time = 7.511 ns    (37.6 %), step = 35.18 ps     (176 m%)
    tran: time = 8.501 ns    (42.5 %), step = 15.37 ps    (76.8 m%)
    tran: time = 9.5 ns      (47.5 %), step = 11.46 ps    (57.3 m%)
SOAC: I0.MND.soac_m1       modn V(B,PSUB): LEAVING@  0.00900323us ;
SOAC: I0.MNA.soac_m1       modn V(B,PSUB): LEAVING@  0.009009us ;
SOAC: I0.MNA.soac_m1       modn V(B,PSUB): ENTERING@ 0.0101744us duration:0.00117us ;
    tran: time = 10.5 ns     (52.5 %), step = 16.57 ps    (82.8 m%)
SOAC: I0.MND.soac_m1       modn V(B,PSUB): ENTERING@ 0.0113155us duration:0.00231us ;
    tran: time = 11.53 ns    (57.6 %), step = 39.28 ps     (196 m%)
    tran: time = 12.51 ns    (62.5 %), step = 18.19 ps    (90.9 m%)
SOAC: I0.MND.soac_m1       modn V(B,PSUB): LEAVING@  0.012203us ;
    tran: time = 13.5 ns     (67.5 %), step = 24.88 ps     (124 m%)
    tran: time = 14.53 ns    (72.6 %), step = 34.67 ps     (173 m%)
SOAC: I0.MND.soac_m1       modn V(B,PSUB): ENTERING@ 0.015321us duration:0.00312us ;
    tran: time = 15.54 ns    (77.7 %), step = 40.26 ps     (201 m%)
    tran: time = 16.51 ns    (82.5 %), step = 17.92 ps    (89.6 m%)
SOAC: I0.MND.soac_m1       modn V(B,PSUB): LEAVING@  0.016203us ;
    tran: time = 17.5 ns     (87.5 %), step = 25.03 ps     (125 m%)
    tran: time = 18.53 ns    (92.6 %), step = 34.67 ps     (173 m%)
SOAC: I0.MND.soac_m1       modn V(B,PSUB): ENTERING@ 0.019321us duration:0.00312us ;
    tran: time = 19.54 ns    (97.7 %), step = 40.26 ps     (201 m%)
Number of accepted tran steps =             2752

Maximum value achieved for any signal of each quantity: 
V: V(I0.net1) = 3.62 V
I: I(V:p) = 436.5 uA

~~~~~~~~~~~~~~~~~~~~~~~~~~~~~~~~~
Post-Transient Simulation Summary
~~~~~~~~~~~~~~~~~~~~~~~~~~~~~~~~~
   -   To further speed up simulation, consider
          add ++aps on command line
   -   Non-default settings that could significantly slow down simulation
          errpreset = conservative, default moderate
          reltol = 10e-06, default 100e-06 (conservative)
~~~~~~~~~~~~~~~~~~~~~~~~~~~~~~~~~


During simulation, the CPU load for active processors is :
         0 (2.0 %)       1 (1.2 %)       2 (5.9 %)       3 (2.0 %)
         4 (43.7 %)      5 (1.2 %)       6 (2.0 %)       7 (2.0 %)
         8 (15.0 %)      9 (15.2 %)     10 (5.1 %)      11 (14.5 %)
        Total: 109.7%
Initial condition solution time: CPU = 425 us, elapsed = 432.014 us.
Intrinsic tran analysis time:    CPU = 260.618 ms, elapsed = 266.926 ms.
Total time required for tran analysis `tran': CPU = 262.172 ms, elapsed = 276.854 ms, util. = 94.7%.
Time accumulated: CPU = 1.85477 s, elapsed = 2.58693 s.
Peak resident memory used = 197 Mbytes.

finalTimeOP: writing operating point information to rawfile.

Opening the PSF file ../psf/mc1_separate/006/finalTimeOP.info ...
modelParameter: writing model parameter values to rawfile.

Opening the PSF file ../psf/mc1_separate/006/modelParameter.info ...
element: writing instance parameter values to rawfile.

Opening the PSF file ../psf/mc1_separate/006/element.info ...
outputParameter: writing output parameter values to rawfile.

Opening the PSF file ../psf/mc1_separate/006/outputParameter.info ...
designParamVals: writing netlist parameters to rawfile.

Opening the PSFASCII file ../psf/mc1_separate/006/designParamVals.info ...
primitives: writing primitives to rawfile.

Opening the PSFASCII file ../psf/mc1_separate/006/primitives.info.primitives ...
subckts: writing subcircuits to rawfile.

Opening the PSFASCII file ../psf/mc1_separate/006/subckts.info.subckts ...
    mc1: iteration = 6           (2.51 %), step = 1            (503 m%)
7              3.02% 

************************************************
Transient Analysis `tran': time = (0 s -> 20 ns)
************************************************

Opening the PSF file ../psf/mc1_separate/007/tran.tran.tran ...

Notice from spectre during IC analysis, during transient analysis `tran', during Monte Carlo analysis `mc1'.
    GminDC = 1 pS is large enough to noticeably affect the DC solution.
        dV(I0.net3) = 2.62951 mV
        Use the `gmin_check' option to eliminate or expand this report.
Warning from spectre during check, during IC analysis, during transient analysis `tran', during Monte Carlo analysis `mc1'.
    WARNING (CMI-2943): Parameter checks have been ignored because the valid value for parameter 'trise' could not be found in 'C0'.

DC simulation time: CPU = 404 us, elapsed = 407.934 us.
Important parameter values:
    start = 0 s
    outputstart = 0 s
    stop = 20 ns
    step = 20 ps
    maxstep = 200 ps
    ic = all
    useprevic = no
    skipdc = no
    reltol = 10e-06
    abstol(V) = 1 uV
    abstol(I) = 1 pA
    temp = 27 C
    tnom = 27 C
    tempeffects = all
    errpreset = conservative
    method = gear2only
    lteratio = 10
    relref = alllocal
    cmin = 0 F
    gmin = 1 pS
    rabsshort = 1 mOhm


Notice from spectre during transient analysis `tran', during Monte Carlo analysis `mc1'.
    Multithreading is disabled due to the size of the design being too small.


Output and IC/nodeset summary:
                 save   5       (current)
                 save   17      (voltage)

    tran: time = 506.6 ps    (2.53 %), step = 27.2 ps      (136 m%)
    tran: time = 1.518 ns    (7.59 %), step = 28.72 ps     (144 m%)
    tran: time = 2.507 ns    (12.5 %), step = 28.55 ps     (143 m%)
    tran: time = 3.516 ns    (17.6 %), step = 31.98 ps     (160 m%)
    tran: time = 4.501 ns    (22.5 %), step = 17.06 ps    (85.3 m%)
    tran: time = 5.51 ns     (27.5 %), step = 14.78 ps    (73.9 m%)
SOAC: I0.MND.soac_m1       modn V(B,PSUB): LEAVING@  0.0050032us ;
SOAC: I0.MNA.soac_m1       modn V(B,PSUB): LEAVING@  0.00500878us ;
SOAC: I0.MNA.soac_m1       modn V(B,PSUB): ENTERING@ 0.00619446us duration:0.00119us ;
SOAC: I0.MND.soac_m1       modn V(B,PSUB): ENTERING@ 0.00619672us duration:0.00119us ;
    tran: time = 6.507 ns    (32.5 %), step = 8.591 ps      (43 m%)
    tran: time = 7.525 ns    (37.6 %), step = 39.89 ps     (199 m%)
    tran: time = 8.509 ns    (42.5 %), step = 15.78 ps    (78.9 m%)
    tran: time = 9.507 ns    (47.5 %), step = 11.09 ps    (55.5 m%)
SOAC: I0.MND.soac_m1       modn V(B,PSUB): LEAVING@  0.00900327us ;
SOAC: I0.MNA.soac_m1       modn V(B,PSUB): LEAVING@  0.00900892us ;
SOAC: I0.MNA.soac_m1       modn V(B,PSUB): ENTERING@ 0.0101746us duration:0.00117us ;
    tran: time = 10.51 ns    (52.5 %), step = 17.79 ps    (88.9 m%)
SOAC: I0.MND.soac_m1       modn V(B,PSUB): ENTERING@ 0.0113128us duration:0.00231us ;
    tran: time = 11.52 ns    (57.6 %), step = 39.12 ps     (196 m%)
    tran: time = 12.5 ns     (62.5 %), step = 17.99 ps    (89.9 m%)
SOAC: I0.MND.soac_m1       modn V(B,PSUB): LEAVING@  0.0122028us ;
    tran: time = 13.52 ns    (67.6 %), step = 25.72 ps     (129 m%)
    tran: time = 14.5 ns     (72.5 %), step = 30.57 ps     (153 m%)
SOAC: I0.MND.soac_m1       modn V(B,PSUB): ENTERING@ 0.0153184us duration:0.00312us ;
    tran: time = 15.53 ns    (77.6 %), step = 39.5 ps      (198 m%)
    tran: time = 16.51 ns    (82.5 %), step = 18.19 ps      (91 m%)
SOAC: I0.MND.soac_m1       modn V(B,PSUB): LEAVING@  0.0162028us ;
    tran: time = 17.52 ns    (87.6 %), step = 25.69 ps     (128 m%)
    tran: time = 18.5 ns     (92.5 %), step = 30.57 ps     (153 m%)
SOAC: I0.MND.soac_m1       modn V(B,PSUB): ENTERING@ 0.0193184us duration:0.00312us ;
    tran: time = 19.53 ns    (97.6 %), step = 39.5 ps      (198 m%)
Number of accepted tran steps =             2762

Maximum value achieved for any signal of each quantity: 
V: V(I0.net1) = 3.618 V
I: I(V:p) = 439.2 uA

~~~~~~~~~~~~~~~~~~~~~~~~~~~~~~~~~
Post-Transient Simulation Summary
~~~~~~~~~~~~~~~~~~~~~~~~~~~~~~~~~
   -   To further speed up simulation, consider
          add ++aps on command line
   -   Non-default settings that could significantly slow down simulation
          errpreset = conservative, default moderate
          reltol = 10e-06, default 100e-06 (conservative)
~~~~~~~~~~~~~~~~~~~~~~~~~~~~~~~~~


During simulation, the CPU load for active processors is :
         0 (2.1 %)       1 (1.4 %)       2 (5.3 %)       3 (3.5 %)
         4 (39.2 %)      5 (1.0 %)       6 (2.1 %)       7 (1.8 %)
         8 (23.1 %)      9 (15.0 %)     10 (4.9 %)      11 (15.4 %)
        Total: 114.7%
Initial condition solution time: CPU = 421 us, elapsed = 424.862 us.
Intrinsic tran analysis time:    CPU = 260.377 ms, elapsed = 269.21 ms.
Total time required for tran analysis `tran': CPU = 261.894 ms, elapsed = 278.247 ms, util. = 94.1%.
Time accumulated: CPU = 2.12837 s, elapsed = 2.90248 s.
Peak resident memory used = 197 Mbytes.

finalTimeOP: writing operating point information to rawfile.

Opening the PSF file ../psf/mc1_separate/007/finalTimeOP.info ...
modelParameter: writing model parameter values to rawfile.

Opening the PSF file ../psf/mc1_separate/007/modelParameter.info ...
element: writing instance parameter values to rawfile.

Opening the PSF file ../psf/mc1_separate/007/element.info ...
outputParameter: writing output parameter values to rawfile.

Opening the PSF file ../psf/mc1_separate/007/outputParameter.info ...
designParamVals: writing netlist parameters to rawfile.

Opening the PSFASCII file ../psf/mc1_separate/007/designParamVals.info ...
primitives: writing primitives to rawfile.

Opening the PSFASCII file ../psf/mc1_separate/007/primitives.info.primitives ...
subckts: writing subcircuits to rawfile.

Opening the PSFASCII file ../psf/mc1_separate/007/subckts.info.subckts ...
    mc1: iteration = 7           (3.02 %), step = 1            (503 m%)
8              3.52% 

************************************************
Transient Analysis `tran': time = (0 s -> 20 ns)
************************************************

Opening the PSF file ../psf/mc1_separate/008/tran.tran.tran ...

Notice from spectre during IC analysis, during transient analysis `tran', during Monte Carlo analysis `mc1'.
    GminDC = 1 pS is large enough to noticeably affect the DC solution.
        dV(I0.net3) = 2.69673 mV
        Use the `gmin_check' option to eliminate or expand this report.
Warning from spectre during check, during IC analysis, during transient analysis `tran', during Monte Carlo analysis `mc1'.
    WARNING (CMI-2943): Parameter checks have been ignored because the valid value for parameter 'trise' could not be found in 'C0'.

DC simulation time: CPU = 375 us, elapsed = 377.893 us.
Important parameter values:
    start = 0 s
    outputstart = 0 s
    stop = 20 ns
    step = 20 ps
    maxstep = 200 ps
    ic = all
    useprevic = no
    skipdc = no
    reltol = 10e-06
    abstol(V) = 1 uV
    abstol(I) = 1 pA
    temp = 27 C
    tnom = 27 C
    tempeffects = all
    errpreset = conservative
    method = gear2only
    lteratio = 10
    relref = alllocal
    cmin = 0 F
    gmin = 1 pS
    rabsshort = 1 mOhm


Notice from spectre during transient analysis `tran', during Monte Carlo analysis `mc1'.
    Multithreading is disabled due to the size of the design being too small.


Output and IC/nodeset summary:
                 save   5       (current)
                 save   17      (voltage)

    tran: time = 501.5 ps    (2.51 %), step = 26.68 ps     (133 m%)
    tran: time = 1.529 ns    (7.64 %), step = 30.87 ps     (154 m%)
    tran: time = 2.501 ns    (12.5 %), step = 28.63 ps     (143 m%)
    tran: time = 3.517 ns    (17.6 %), step = 31.62 ps     (158 m%)
    tran: time = 4.503 ns    (22.5 %), step = 17.25 ps    (86.2 m%)
    tran: time = 5.506 ns    (27.5 %), step = 14.66 ps    (73.3 m%)
SOAC: I0.MND.soac_m1       modn V(B,PSUB): LEAVING@  0.00500321us ;
SOAC: I0.MNA.soac_m1       modn V(B,PSUB): LEAVING@  0.00500884us ;
SOAC: I0.MNA.soac_m1       modn V(B,PSUB): ENTERING@ 0.00619433us duration:0.00119us ;
SOAC: I0.MND.soac_m1       modn V(B,PSUB): ENTERING@ 0.00619669us duration:0.00119us ;
    tran: time = 6.505 ns    (32.5 %), step = 19.93 ps    (99.6 m%)
    tran: time = 7.504 ns    (37.5 %), step = 33.74 ps     (169 m%)
    tran: time = 8.511 ns    (42.6 %), step = 15.84 ps    (79.2 m%)
    tran: time = 9.505 ns    (47.5 %), step = 10.96 ps    (54.8 m%)
SOAC: I0.MND.soac_m1       modn V(B,PSUB): LEAVING@  0.00900328us ;
SOAC: I0.MNA.soac_m1       modn V(B,PSUB): LEAVING@  0.00900895us ;
SOAC: I0.MNA.soac_m1       modn V(B,PSUB): ENTERING@ 0.0101747us duration:0.00117us ;
    tran: time = 10.51 ns    (52.6 %), step = 17.79 ps    (88.9 m%)
SOAC: I0.MND.soac_m1       modn V(B,PSUB): ENTERING@ 0.0113157us duration:0.00231us ;
    tran: time = 11.53 ns    (57.6 %), step = 39.95 ps     (200 m%)
    tran: time = 12.5 ns     (62.5 %), step = 17.93 ps    (89.6 m%)
SOAC: I0.MND.soac_m1       modn V(B,PSUB): LEAVING@  0.0122027us ;
    tran: time = 13.5 ns     (67.5 %), step = 24.92 ps     (125 m%)
    tran: time = 14.52 ns    (72.6 %), step = 34.75 ps     (174 m%)
SOAC: I0.MND.soac_m1       modn V(B,PSUB): ENTERING@ 0.0153214us duration:0.00312us ;
    tran: time = 15.54 ns    (77.7 %), step = 40.12 ps     (201 m%)
    tran: time = 16.5 ns     (82.5 %), step = 17.94 ps    (89.7 m%)
SOAC: I0.MND.soac_m1       modn V(B,PSUB): LEAVING@  0.0162027us ;
    tran: time = 17.51 ns    (87.5 %), step = 27.48 ps     (137 m%)
    tran: time = 18.52 ns    (92.6 %), step = 34.75 ps     (174 m%)
SOAC: I0.MND.soac_m1       modn V(B,PSUB): ENTERING@ 0.0193214us duration:0.00312us ;
    tran: time = 19.54 ns    (97.7 %), step = 40.12 ps     (201 m%)
Number of accepted tran steps =             2760

Maximum value achieved for any signal of each quantity: 
V: V(I0.net1) = 3.618 V
I: I(V:p) = 439.3 uA

~~~~~~~~~~~~~~~~~~~~~~~~~~~~~~~~~
Post-Transient Simulation Summary
~~~~~~~~~~~~~~~~~~~~~~~~~~~~~~~~~
   -   To further speed up simulation, consider
          add ++aps on command line
   -   Non-default settings that could significantly slow down simulation
          errpreset = conservative, default moderate
          reltol = 10e-06, default 100e-06 (conservative)
~~~~~~~~~~~~~~~~~~~~~~~~~~~~~~~~~


During simulation, the CPU load for active processors is :
         0 (2.5 %)       1 (1.3 %)       2 (4.7 %)       3 (3.1 %)
         4 (35.3 %)      6 (1.9 %)       7 (1.9 %)       8 (21.3 %)
         9 (21.7 %)     10 (4.4 %)      11 (14.2 %)     
        Total: 113.3%
Initial condition solution time: CPU = 391 us, elapsed = 395.06 us.
Intrinsic tran analysis time:    CPU = 260.783 ms, elapsed = 269.603 ms.
Total time required for tran analysis `tran': CPU = 262.226 ms, elapsed = 278.751 ms, util. = 94.1%.
Time accumulated: CPU = 2.40223 s, elapsed = 3.2178 s.
Peak resident memory used = 197 Mbytes.

finalTimeOP: writing operating point information to rawfile.

Opening the PSF file ../psf/mc1_separate/008/finalTimeOP.info ...
modelParameter: writing model parameter values to rawfile.

Opening the PSF file ../psf/mc1_separate/008/modelParameter.info ...
element: writing instance parameter values to rawfile.

Opening the PSF file ../psf/mc1_separate/008/element.info ...
outputParameter: writing output parameter values to rawfile.

Opening the PSF file ../psf/mc1_separate/008/outputParameter.info ...
designParamVals: writing netlist parameters to rawfile.

Opening the PSFASCII file ../psf/mc1_separate/008/designParamVals.info ...
primitives: writing primitives to rawfile.

Opening the PSFASCII file ../psf/mc1_separate/008/primitives.info.primitives ...
subckts: writing subcircuits to rawfile.

Opening the PSFASCII file ../psf/mc1_separate/008/subckts.info.subckts ...
    mc1: iteration = 8           (3.52 %), step = 1            (503 m%)
9              4.02% 

************************************************
Transient Analysis `tran': time = (0 s -> 20 ns)
************************************************

Opening the PSF file ../psf/mc1_separate/009/tran.tran.tran ...

Notice from spectre during IC analysis, during transient analysis `tran', during Monte Carlo analysis `mc1'.
    GminDC = 1 pS is large enough to noticeably affect the DC solution.
        dV(I0.net3) = 5.52563 mV
        Use the `gmin_check' option to eliminate or expand this report.
Warning from spectre during check, during IC analysis, during transient analysis `tran', during Monte Carlo analysis `mc1'.
    WARNING (CMI-2943): Parameter checks have been ignored because the valid value for parameter 'trise' could not be found in 'C0'.

DC simulation time: CPU = 375 us, elapsed = 378.847 us.
Important parameter values:
    start = 0 s
    outputstart = 0 s
    stop = 20 ns
    step = 20 ps
    maxstep = 200 ps
    ic = all
    useprevic = no
    skipdc = no
    reltol = 10e-06
    abstol(V) = 1 uV
    abstol(I) = 1 pA
    temp = 27 C
    tnom = 27 C
    tempeffects = all
    errpreset = conservative
    method = gear2only
    lteratio = 10
    relref = alllocal
    cmin = 0 F
    gmin = 1 pS
    rabsshort = 1 mOhm


Notice from spectre during transient analysis `tran', during Monte Carlo analysis `mc1'.
    Multithreading is disabled due to the size of the design being too small.


Output and IC/nodeset summary:
                 save   5       (current)
                 save   17      (voltage)

    tran: time = 501.2 ps    (2.51 %), step = 23.04 ps     (115 m%)
    tran: time = 1.525 ns    (7.62 %), step = 27.74 ps     (139 m%)
    tran: time = 2.512 ns    (12.6 %), step = 28.82 ps     (144 m%)
    tran: time = 3.512 ns    (17.6 %), step = 31.01 ps     (155 m%)
    tran: time = 4.505 ns    (22.5 %), step = 17.4 ps       (87 m%)
    tran: time = 5.507 ns    (27.5 %), step = 14.82 ps    (74.1 m%)
SOAC: I0.MND.soac_m1       modn V(B,PSUB): LEAVING@  0.00500322us ;
SOAC: I0.MNA.soac_m1       modn V(B,PSUB): LEAVING@  0.00500872us ;
SOAC: I0.MNA.soac_m1       modn V(B,PSUB): ENTERING@ 0.006195us duration:0.00119us ;
SOAC: I0.MND.soac_m1       modn V(B,PSUB): ENTERING@ 0.00619725us duration:0.00119us ;
    tran: time = 6.504 ns    (32.5 %), step = 19.93 ps    (99.7 m%)
    tran: time = 7.503 ns    (37.5 %), step = 33.28 ps     (166 m%)
    tran: time = 8.507 ns    (42.5 %), step = 15.62 ps    (78.1 m%)
    tran: time = 9.507 ns    (47.5 %), step = 11.21 ps    (56.1 m%)
SOAC: I0.MND.soac_m1       modn V(B,PSUB): LEAVING@  0.00900329us ;
SOAC: I0.MNA.soac_m1       modn V(B,PSUB): LEAVING@  0.00900886us ;
SOAC: I0.MNA.soac_m1       modn V(B,PSUB): ENTERING@ 0.0101749us duration:0.00117us ;
    tran: time = 10.51 ns    (52.5 %), step = 17.07 ps    (85.3 m%)
SOAC: I0.MND.soac_m1       modn V(B,PSUB): ENTERING@ 0.0113155us duration:0.00231us ;
    tran: time = 11.53 ns    (57.6 %), step = 39.88 ps     (199 m%)
    tran: time = 12.51 ns    (62.5 %), step = 17.95 ps    (89.7 m%)
SOAC: I0.MND.soac_m1       modn V(B,PSUB): LEAVING@  0.0122031us ;
    tran: time = 13.5 ns     (67.5 %), step = 24.79 ps     (124 m%)
    tran: time = 14.51 ns    (72.5 %), step = 30.59 ps     (153 m%)
SOAC: I0.MND.soac_m1       modn V(B,PSUB): ENTERING@ 0.0153213us duration:0.00312us ;
    tran: time = 15.53 ns    (77.7 %), step = 39.83 ps     (199 m%)
    tran: time = 16.51 ns    (82.6 %), step = 18.15 ps    (90.8 m%)
SOAC: I0.MND.soac_m1       modn V(B,PSUB): LEAVING@  0.016203us ;
    tran: time = 17.5 ns     (87.5 %), step = 25.16 ps     (126 m%)
    tran: time = 18.51 ns    (92.5 %), step = 30.59 ps     (153 m%)
SOAC: I0.MND.soac_m1       modn V(B,PSUB): ENTERING@ 0.0193213us duration:0.00312us ;
    tran: time = 19.53 ns    (97.7 %), step = 39.83 ps     (199 m%)
Number of accepted tran steps =             2742

Maximum value achieved for any signal of each quantity: 
V: V(I0.net1) = 3.62 V
I: I(V:p) = 432.8 uA

~~~~~~~~~~~~~~~~~~~~~~~~~~~~~~~~~
Post-Transient Simulation Summary
~~~~~~~~~~~~~~~~~~~~~~~~~~~~~~~~~
   -   To further speed up simulation, consider
          add ++aps on command line
   -   Non-default settings that could significantly slow down simulation
          errpreset = conservative, default moderate
          reltol = 10e-06, default 100e-06 (conservative)
~~~~~~~~~~~~~~~~~~~~~~~~~~~~~~~~~


During simulation, the CPU load for active processors is :
         0 (2.6 %)       1 (1.2 %)       2 (4.3 %)       3 (2.9 %)
         4 (32.3 %)      6 (1.7 %)       7 (1.7 %)       8 (26.3 %)
         9 (20.4 %)     10 (4.0 %)      11 (13.0 %)     
        Total: 111.2%
Initial condition solution time: CPU = 391 us, elapsed = 396.013 us.
Intrinsic tran analysis time:    CPU = 251.174 ms, elapsed = 261.215 ms.
Total time required for tran analysis `tran': CPU = 252.805 ms, elapsed = 272.232 ms, util. = 92.9%.
Time accumulated: CPU = 2.66667 s, elapsed = 3.52694 s.
Peak resident memory used = 197 Mbytes.

finalTimeOP: writing operating point information to rawfile.

Opening the PSF file ../psf/mc1_separate/009/finalTimeOP.info ...
modelParameter: writing model parameter values to rawfile.

Opening the PSF file ../psf/mc1_separate/009/modelParameter.info ...
element: writing instance parameter values to rawfile.

Opening the PSF file ../psf/mc1_separate/009/element.info ...
outputParameter: writing output parameter values to rawfile.

Opening the PSF file ../psf/mc1_separate/009/outputParameter.info ...
designParamVals: writing netlist parameters to rawfile.

Opening the PSFASCII file ../psf/mc1_separate/009/designParamVals.info ...
primitives: writing primitives to rawfile.

Opening the PSFASCII file ../psf/mc1_separate/009/primitives.info.primitives ...
subckts: writing subcircuits to rawfile.

Opening the PSFASCII file ../psf/mc1_separate/009/subckts.info.subckts ...
    mc1: iteration = 9           (4.02 %), step = 1            (503 m%)
10             4.52% 

************************************************
Transient Analysis `tran': time = (0 s -> 20 ns)
************************************************

Opening the PSF file ../psf/mc1_separate/010/tran.tran.tran ...

Notice from spectre during IC analysis, during transient analysis `tran', during Monte Carlo analysis `mc1'.
    GminDC = 1 pS is large enough to noticeably affect the DC solution.
        dV(I0.net3) = 4.1875 mV
        Use the `gmin_check' option to eliminate or expand this report.
Warning from spectre during check, during IC analysis, during transient analysis `tran', during Monte Carlo analysis `mc1'.
    WARNING (CMI-2943): Parameter checks have been ignored because the valid value for parameter 'trise' could not be found in 'C0'.

DC simulation time: CPU = 359 us, elapsed = 360.012 us.
Important parameter values:
    start = 0 s
    outputstart = 0 s
    stop = 20 ns
    step = 20 ps
    maxstep = 200 ps
    ic = all
    useprevic = no
    skipdc = no
    reltol = 10e-06
    abstol(V) = 1 uV
    abstol(I) = 1 pA
    temp = 27 C
    tnom = 27 C
    tempeffects = all
    errpreset = conservative
    method = gear2only
    lteratio = 10
    relref = alllocal
    cmin = 0 F
    gmin = 1 pS
    rabsshort = 1 mOhm


Notice from spectre during transient analysis `tran', during Monte Carlo analysis `mc1'.
    Multithreading is disabled due to the size of the design being too small.


Output and IC/nodeset summary:
                 save   5       (current)
                 save   17      (voltage)

    tran: time = 516.3 ps    (2.58 %), step = 24.84 ps     (124 m%)
    tran: time = 1.518 ns    (7.59 %), step = 28.53 ps     (143 m%)
    tran: time = 2.512 ns    (12.6 %), step = 28.79 ps     (144 m%)
    tran: time = 3.51 ns     (17.6 %), step = 31.14 ps     (156 m%)
    tran: time = 4.512 ns    (22.6 %), step = 18.01 ps    (90.1 m%)
    tran: time = 5.509 ns    (27.5 %), step = 15.07 ps    (75.4 m%)
SOAC: I0.MND.soac_m1       modn V(B,PSUB): LEAVING@  0.00500321us ;
SOAC: I0.MNA.soac_m1       modn V(B,PSUB): LEAVING@  0.00500879us ;
SOAC: I0.MNA.soac_m1       modn V(B,PSUB): ENTERING@ 0.00619481us duration:0.00119us ;
SOAC: I0.MND.soac_m1       modn V(B,PSUB): ENTERING@ 0.00619711us duration:0.00119us ;
    tran: time = 6.501 ns    (32.5 %), step = 8.151 ps    (40.8 m%)
    tran: time = 7.51 ns     (37.6 %), step = 35.26 ps     (176 m%)
    tran: time = 8.511 ns    (42.6 %), step = 15.79 ps    (78.9 m%)
    tran: time = 9.507 ns    (47.5 %), step = 11.37 ps    (56.9 m%)
SOAC: I0.MND.soac_m1       modn V(B,PSUB): LEAVING@  0.00900327us ;
SOAC: I0.MNA.soac_m1       modn V(B,PSUB): LEAVING@  0.00900892us ;
SOAC: I0.MNA.soac_m1       modn V(B,PSUB): ENTERING@ 0.0101748us duration:0.00117us ;
    tran: time = 10.51 ns    (52.5 %), step = 16.88 ps    (84.4 m%)
SOAC: I0.MND.soac_m1       modn V(B,PSUB): ENTERING@ 0.0113132us duration:0.00231us ;
    tran: time = 11.52 ns    (57.6 %), step = 39.66 ps     (198 m%)
    tran: time = 12.51 ns    (62.6 %), step = 18.2 ps       (91 m%)
SOAC: I0.MND.soac_m1       modn V(B,PSUB): LEAVING@  0.0122039us ;
    tran: time = 13.5 ns     (67.5 %), step = 27.13 ps     (136 m%)
    tran: time = 14.5 ns     (72.5 %), step = 29.58 ps     (148 m%)
SOAC: I0.MND.soac_m1       modn V(B,PSUB): ENTERING@ 0.0153189us duration:0.00311us ;
    tran: time = 15.53 ns    (77.7 %), step = 39.65 ps     (198 m%)
    tran: time = 16.51 ns    (82.5 %), step = 17.9 ps     (89.5 m%)
SOAC: I0.MND.soac_m1       modn V(B,PSUB): LEAVING@  0.016204us ;
    tran: time = 17.53 ns    (87.6 %), step = 25.8 ps      (129 m%)
    tran: time = 18.5 ns     (92.5 %), step = 29.58 ps     (148 m%)
SOAC: I0.MND.soac_m1       modn V(B,PSUB): ENTERING@ 0.0193189us duration:0.00311us ;
    tran: time = 19.53 ns    (97.7 %), step = 39.65 ps     (198 m%)
Number of accepted tran steps =             2752

Maximum value achieved for any signal of each quantity: 
V: V(I0.net1) = 3.621 V
I: I(V:p) = 430.1 uA

~~~~~~~~~~~~~~~~~~~~~~~~~~~~~~~~~
Post-Transient Simulation Summary
~~~~~~~~~~~~~~~~~~~~~~~~~~~~~~~~~
   -   To further speed up simulation, consider
          add ++aps on command line
   -   Non-default settings that could significantly slow down simulation
          errpreset = conservative, default moderate
          reltol = 10e-06, default 100e-06 (conservative)
~~~~~~~~~~~~~~~~~~~~~~~~~~~~~~~~~


During simulation, the CPU load for active processors is :
         0 (2.6 %)       1 (1.3 %)       2 (3.9 %)       3 (3.9 %)
         4 (29.7 %)      5 (1.1 %)       6 (2.6 %)       7 (1.8 %)
         8 (31.2 %)      9 (18.9 %)     10 (4.2 %)      11 (12.4 %)
        Total: 113.8%
Initial condition solution time: CPU = 376 us, elapsed = 376.94 us.
Intrinsic tran analysis time:    CPU = 258.717 ms, elapsed = 267.926 ms.
Total time required for tran analysis `tran': CPU = 260.269 ms, elapsed = 277.86 ms, util. = 93.7%.
Time accumulated: CPU = 2.94007 s, elapsed = 3.84948 s.
Peak resident memory used = 197 Mbytes.

finalTimeOP: writing operating point information to rawfile.

Opening the PSF file ../psf/mc1_separate/010/finalTimeOP.info ...
modelParameter: writing model parameter values to rawfile.

Opening the PSF file ../psf/mc1_separate/010/modelParameter.info ...
element: writing instance parameter values to rawfile.

Opening the PSF file ../psf/mc1_separate/010/element.info ...
outputParameter: writing output parameter values to rawfile.

Opening the PSF file ../psf/mc1_separate/010/outputParameter.info ...
designParamVals: writing netlist parameters to rawfile.

Opening the PSFASCII file ../psf/mc1_separate/010/designParamVals.info ...
primitives: writing primitives to rawfile.

Opening the PSFASCII file ../psf/mc1_separate/010/primitives.info.primitives ...
subckts: writing subcircuits to rawfile.

Opening the PSFASCII file ../psf/mc1_separate/010/subckts.info.subckts ...
    mc1: iteration = 10          (4.52 %), step = 1            (503 m%)
11             5.03% 

************************************************
Transient Analysis `tran': time = (0 s -> 20 ns)
************************************************

Opening the PSF file ../psf/mc1_separate/011/tran.tran.tran ...

Notice from spectre during IC analysis, during transient analysis `tran', during Monte Carlo analysis `mc1'.
    GminDC = 1 pS is large enough to noticeably affect the DC solution.
        dV(I0.net3) = 2.76465 mV
        Use the `gmin_check' option to eliminate or expand this report.
Warning from spectre during check, during IC analysis, during transient analysis `tran', during Monte Carlo analysis `mc1'.
    WARNING (CMI-2943): Parameter checks have been ignored because the valid value for parameter 'trise' could not be found in 'C0'.

DC simulation time: CPU = 559 us, elapsed = 559.807 us.
Important parameter values:
    start = 0 s
    outputstart = 0 s
    stop = 20 ns
    step = 20 ps
    maxstep = 200 ps
    ic = all
    useprevic = no
    skipdc = no
    reltol = 10e-06
    abstol(V) = 1 uV
    abstol(I) = 1 pA
    temp = 27 C
    tnom = 27 C
    tempeffects = all
    errpreset = conservative
    method = gear2only
    lteratio = 10
    relref = alllocal
    cmin = 0 F
    gmin = 1 pS
    rabsshort = 1 mOhm


Notice from spectre during transient analysis `tran', during Monte Carlo analysis `mc1'.
    Multithreading is disabled due to the size of the design being too small.


Output and IC/nodeset summary:
                 save   5       (current)
                 save   17      (voltage)

    tran: time = 523.6 ps    (2.62 %), step = 24.65 ps     (123 m%)
    tran: time = 1.508 ns    (7.54 %), step = 39.86 ps     (199 m%)
    tran: time = 2.506 ns    (12.5 %), step = 28.98 ps     (145 m%)
    tran: time = 3.514 ns    (17.6 %), step = 31.46 ps     (157 m%)
    tran: time = 4.51 ns     (22.5 %), step = 17.78 ps    (88.9 m%)
    tran: time = 5.507 ns    (27.5 %), step = 14.85 ps    (74.3 m%)
SOAC: I0.MND.soac_m1       modn V(B,PSUB): LEAVING@  0.0050032us ;
SOAC: I0.MNA.soac_m1       modn V(B,PSUB): LEAVING@  0.00500887us ;
SOAC: I0.MNA.soac_m1       modn V(B,PSUB): ENTERING@ 0.00619387us duration:0.00119us ;
SOAC: I0.MND.soac_m1       modn V(B,PSUB): ENTERING@ 0.00619621us duration:0.00119us ;
    tran: time = 6.501 ns    (32.5 %), step = 19.75 ps    (98.7 m%)
    tran: time = 7.513 ns    (37.6 %), step = 35.52 ps     (178 m%)
    tran: time = 8.501 ns    (42.5 %), step = 15.37 ps    (76.9 m%)
    tran: time = 9.501 ns    (47.5 %), step = 11.17 ps    (55.9 m%)
SOAC: I0.MND.soac_m1       modn V(B,PSUB): LEAVING@  0.00900324us ;
SOAC: I0.MNA.soac_m1       modn V(B,PSUB): LEAVING@  0.00900901us ;
SOAC: I0.MNA.soac_m1       modn V(B,PSUB): ENTERING@ 0.0101741us duration:0.00117us ;
    tran: time = 10.5 ns     (52.5 %), step = 16.51 ps    (82.6 m%)
SOAC: I0.MND.soac_m1       modn V(B,PSUB): ENTERING@ 0.0113158us duration:0.00231us ;
    tran: time = 11.53 ns    (57.6 %), step = 39.79 ps     (199 m%)
    tran: time = 12.51 ns    (62.5 %), step = 17.93 ps    (89.7 m%)
SOAC: I0.MND.soac_m1       modn V(B,PSUB): LEAVING@  0.0122037us ;
    tran: time = 13.52 ns    (67.6 %), step = 25.19 ps     (126 m%)
    tran: time = 14.52 ns    (72.6 %), step = 34.36 ps     (172 m%)
SOAC: I0.MND.soac_m1       modn V(B,PSUB): ENTERING@ 0.0153211us duration:0.00312us ;
    tran: time = 15.53 ns    (77.7 %), step = 40.03 ps     (200 m%)
    tran: time = 16.51 ns    (82.5 %), step = 17.93 ps    (89.7 m%)
SOAC: I0.MND.soac_m1       modn V(B,PSUB): LEAVING@  0.0162037us ;
    tran: time = 17.52 ns    (87.6 %), step = 25.5 ps      (127 m%)
    tran: time = 18.52 ns    (92.6 %), step = 34.36 ps     (172 m%)
SOAC: I0.MND.soac_m1       modn V(B,PSUB): ENTERING@ 0.0193211us duration:0.00312us ;
    tran: time = 19.53 ns    (97.7 %), step = 40.03 ps     (200 m%)
Number of accepted tran steps =             2764

Maximum value achieved for any signal of each quantity: 
V: V(I0.net1) = 3.619 V
I: I(V:p) = 435.7 uA

~~~~~~~~~~~~~~~~~~~~~~~~~~~~~~~~~
Post-Transient Simulation Summary
~~~~~~~~~~~~~~~~~~~~~~~~~~~~~~~~~
   -   To further speed up simulation, consider
          add ++aps on command line
   -   Non-default settings that could significantly slow down simulation
          errpreset = conservative, default moderate
          reltol = 10e-06, default 100e-06 (conservative)
~~~~~~~~~~~~~~~~~~~~~~~~~~~~~~~~~


During simulation, the CPU load for active processors is :
         0 (3.4 %)       1 (1.7 %)       2 (9.7 %)       3 (6.1 %)
         4 (27.5 %)      5 (1.5 %)       6 (2.7 %)       7 (1.7 %)
         8 (29.5 %)      9 (17.7 %)     10 (4.1 %)      11 (13.9 %)
        Total: 119.4%
Initial condition solution time: CPU = 582 us, elapsed = 583.172 us.
Intrinsic tran analysis time:    CPU = 259.808 ms, elapsed = 266.327 ms.
Total time required for tran analysis `tran': CPU = 261.629 ms, elapsed = 274.822 ms, util. = 95.2%.
Time accumulated: CPU = 3.21639 s, elapsed = 4.16376 s.
Peak resident memory used = 197 Mbytes.

finalTimeOP: writing operating point information to rawfile.

Opening the PSF file ../psf/mc1_separate/011/finalTimeOP.info ...
modelParameter: writing model parameter values to rawfile.

Opening the PSF file ../psf/mc1_separate/011/modelParameter.info ...
element: writing instance parameter values to rawfile.

Opening the PSF file ../psf/mc1_separate/011/element.info ...
outputParameter: writing output parameter values to rawfile.

Opening the PSF file ../psf/mc1_separate/011/outputParameter.info ...
designParamVals: writing netlist parameters to rawfile.

Opening the PSFASCII file ../psf/mc1_separate/011/designParamVals.info ...
primitives: writing primitives to rawfile.

Opening the PSFASCII file ../psf/mc1_separate/011/primitives.info.primitives ...
subckts: writing subcircuits to rawfile.

Opening the PSFASCII file ../psf/mc1_separate/011/subckts.info.subckts ...
    mc1: iteration = 11          (5.03 %), step = 1            (503 m%)
12             5.53% 

************************************************
Transient Analysis `tran': time = (0 s -> 20 ns)
************************************************

Opening the PSF file ../psf/mc1_separate/012/tran.tran.tran ...

Notice from spectre during IC analysis, during transient analysis `tran', during Monte Carlo analysis `mc1'.
    GminDC = 1 pS is large enough to noticeably affect the DC solution.
        dV(I0.net3) = 4.71892 mV
        Use the `gmin_check' option to eliminate or expand this report.
Warning from spectre during check, during IC analysis, during transient analysis `tran', during Monte Carlo analysis `mc1'.
    WARNING (CMI-2943): Parameter checks have been ignored because the valid value for parameter 'trise' could not be found in 'C0'.

DC simulation time: CPU = 405 us, elapsed = 406.981 us.
Important parameter values:
    start = 0 s
    outputstart = 0 s
    stop = 20 ns
    step = 20 ps
    maxstep = 200 ps
    ic = all
    useprevic = no
    skipdc = no
    reltol = 10e-06
    abstol(V) = 1 uV
    abstol(I) = 1 pA
    temp = 27 C
    tnom = 27 C
    tempeffects = all
    errpreset = conservative
    method = gear2only
    lteratio = 10
    relref = alllocal
    cmin = 0 F
    gmin = 1 pS
    rabsshort = 1 mOhm


Notice from spectre during transient analysis `tran', during Monte Carlo analysis `mc1'.
    Multithreading is disabled due to the size of the design being too small.


Output and IC/nodeset summary:
                 save   5       (current)
                 save   17      (voltage)

    tran: time = 512.5 ps    (2.56 %), step = 27.73 ps     (139 m%)
    tran: time = 1.527 ns    (7.64 %), step = 30.52 ps     (153 m%)
    tran: time = 2.508 ns    (12.5 %), step = 29.33 ps     (147 m%)
    tran: time = 3.519 ns    (17.6 %), step = 32.51 ps     (163 m%)
    tran: time = 4.518 ns    (22.6 %), step = 18.56 ps    (92.8 m%)
    tran: time = 5.505 ns    (27.5 %), step = 7.443 ps    (37.2 m%)
SOAC: I0.MND.soac_m1       modn V(B,PSUB): LEAVING@  0.0050032us ;
SOAC: I0.MNA.soac_m1       modn V(B,PSUB): LEAVING@  0.00500881us ;
SOAC: I0.MNA.soac_m1       modn V(B,PSUB): ENTERING@ 0.0061944us duration:0.00119us ;
SOAC: I0.MND.soac_m1       modn V(B,PSUB): ENTERING@ 0.00619671us duration:0.00119us ;
    tran: time = 6.511 ns    (32.6 %), step = 16.11 ps    (80.6 m%)
    tran: time = 7.5 ns      (37.5 %), step = 32.4 ps      (162 m%)
    tran: time = 8.512 ns    (42.6 %), step = 15.86 ps    (79.3 m%)
    tran: time = 9.501 ns    (47.5 %), step = 11.44 ps    (57.2 m%)
SOAC: I0.MND.soac_m1       modn V(B,PSUB): LEAVING@  0.00900327us ;
SOAC: I0.MNA.soac_m1       modn V(B,PSUB): LEAVING@  0.00900892us ;
SOAC: I0.MNA.soac_m1       modn V(B,PSUB): ENTERING@ 0.0101744us duration:0.00117us ;
    tran: time = 10.51 ns    (52.6 %), step = 17.83 ps    (89.2 m%)
SOAC: I0.MND.soac_m1       modn V(B,PSUB): ENTERING@ 0.0113145us duration:0.00231us ;
    tran: time = 11.53 ns    (57.6 %), step = 39.72 ps     (199 m%)
    tran: time = 12.51 ns    (62.5 %), step = 18.02 ps    (90.1 m%)
SOAC: I0.MND.soac_m1       modn V(B,PSUB): LEAVING@  0.0122034us ;
    tran: time = 13.51 ns    (67.6 %), step = 24.8 ps      (124 m%)
    tran: time = 14.5 ns     (72.5 %), step = 30.19 ps     (151 m%)
SOAC: I0.MND.soac_m1       modn V(B,PSUB): ENTERING@ 0.01532us duration:0.00312us ;
    tran: time = 15.53 ns    (77.7 %), step = 39.58 ps     (198 m%)
    tran: time = 16.51 ns    (82.5 %), step = 18.02 ps    (90.1 m%)
SOAC: I0.MND.soac_m1       modn V(B,PSUB): LEAVING@  0.0162034us ;
    tran: time = 17.52 ns    (87.6 %), step = 25.06 ps     (125 m%)
    tran: time = 18.5 ns     (92.5 %), step = 30.19 ps     (151 m%)
[...]
Total time required for tran analysis `tran': CPU = 258.354 ms, elapsed = 277.831 ms, util. = 93%.
Time accumulated: CPU = 55.6492 s, elapsed = 64.6097 s (1m  4.6s).
Peak resident memory used = 200 Mbytes.

finalTimeOP: writing operating point information to rawfile.

Opening the PSF file ../psf/mc1_separate/197/finalTimeOP.info ...
modelParameter: writing model parameter values to rawfile.

Opening the PSF file ../psf/mc1_separate/197/modelParameter.info ...
element: writing instance parameter values to rawfile.

Opening the PSF file ../psf/mc1_separate/197/element.info ...
outputParameter: writing output parameter values to rawfile.

Opening the PSF file ../psf/mc1_separate/197/outputParameter.info ...
designParamVals: writing netlist parameters to rawfile.

Opening the PSFASCII file ../psf/mc1_separate/197/designParamVals.info ...
primitives: writing primitives to rawfile.

Opening the PSFASCII file ../psf/mc1_separate/197/primitives.info.primitives ...
subckts: writing subcircuits to rawfile.

Opening the PSFASCII file ../psf/mc1_separate/197/subckts.info.subckts ...
    mc1: iteration = 197         (98.5 %), step = 1            (503 m%)
198           98.99% 

************************************************
Transient Analysis `tran': time = (0 s -> 20 ns)
************************************************

Opening the PSF file ../psf/mc1_separate/198/tran.tran.tran ...

Notice from spectre during IC analysis, during transient analysis `tran', during Monte Carlo analysis `mc1'.
    GminDC = 1 pS is large enough to noticeably affect the DC solution.
        dV(I0.net3) = 4.57165 mV
        Use the `gmin_check' option to eliminate or expand this report.
Warning from spectre during check, during IC analysis, during transient analysis `tran', during Monte Carlo analysis `mc1'.
    WARNING (CMI-2943): Parameter checks have been ignored because the valid value for parameter 'trise' could not be found in 'C0'.

DC simulation time: CPU = 410 us, elapsed = 411.034 us.
Important parameter values:
    start = 0 s
    outputstart = 0 s
    stop = 20 ns
    step = 20 ps
    maxstep = 200 ps
    ic = all
    useprevic = no
    skipdc = no
    reltol = 10e-06
    abstol(V) = 1 uV
    abstol(I) = 1 pA
    temp = 27 C
    tnom = 27 C
    tempeffects = all
    errpreset = conservative
    method = gear2only
    lteratio = 10
    relref = alllocal
    cmin = 0 F
    gmin = 1 pS
    rabsshort = 1 mOhm


Notice from spectre during transient analysis `tran', during Monte Carlo analysis `mc1'.
    Multithreading is disabled due to the size of the design being too small.


Output and IC/nodeset summary:
                 save   5       (current)
                 save   17      (voltage)

    tran: time = 519.7 ps     (2.6 %), step = 25.23 ps     (126 m%)
    tran: time = 1.501 ns     (7.5 %), step = 22.95 ps     (115 m%)
    tran: time = 2.517 ns    (12.6 %), step = 29.4 ps      (147 m%)
    tran: time = 3.509 ns    (17.5 %), step = 31.28 ps     (156 m%)
    tran: time = 4.516 ns    (22.6 %), step = 18.38 ps    (91.9 m%)
    tran: time = 5.508 ns    (27.5 %), step = 15.11 ps    (75.5 m%)
SOAC: I0.MND.soac_m1       modn V(B,PSUB): LEAVING@  0.00500322us ;
SOAC: I0.MNA.soac_m1       modn V(B,PSUB): LEAVING@  0.0050088us ;
SOAC: I0.MNA.soac_m1       modn V(B,PSUB): ENTERING@ 0.00619441us duration:0.00119us ;
SOAC: I0.MND.soac_m1       modn V(B,PSUB): ENTERING@ 0.00619669us duration:0.00119us ;
    tran: time = 6.513 ns    (32.6 %), step = 16.07 ps    (80.4 m%)
    tran: time = 7.502 ns    (37.5 %), step = 32.46 ps     (162 m%)
    tran: time = 8.502 ns    (42.5 %), step = 15.47 ps    (77.3 m%)
    tran: time = 9.5 ns      (47.5 %), step = 11.47 ps    (57.4 m%)
SOAC: I0.MND.soac_m1       modn V(B,PSUB): LEAVING@  0.00900328us ;
SOAC: I0.MNA.soac_m1       modn V(B,PSUB): LEAVING@  0.00900894us ;
SOAC: I0.MNA.soac_m1       modn V(B,PSUB): ENTERING@ 0.0101746us duration:0.00117us ;
    tran: time = 10.51 ns    (52.5 %), step = 16.77 ps    (83.9 m%)
SOAC: I0.MND.soac_m1       modn V(B,PSUB): ENTERING@ 0.0113152us duration:0.00231us ;
    tran: time = 11.53 ns    (57.6 %), step = 39.37 ps     (197 m%)
    tran: time = 12.51 ns    (62.6 %), step = 18.25 ps    (91.3 m%)
SOAC: I0.MND.soac_m1       modn V(B,PSUB): LEAVING@  0.0122036us ;
    tran: time = 13.52 ns    (67.6 %), step = 25.25 ps     (126 m%)
    tran: time = 14.53 ns    (72.7 %), step = 35.53 ps     (178 m%)
SOAC: I0.MND.soac_m1       modn V(B,PSUB): ENTERING@ 0.0153212us duration:0.00312us ;
    tran: time = 15.53 ns    (77.7 %), step = 39.82 ps     (199 m%)
    tran: time = 16.51 ns    (82.5 %), step = 18.03 ps    (90.1 m%)
SOAC: I0.MND.soac_m1       modn V(B,PSUB): LEAVING@  0.0162036us ;
    tran: time = 17.52 ns    (87.6 %), step = 25.33 ps     (127 m%)
    tran: time = 18.53 ns    (92.7 %), step = 35.53 ps     (178 m%)
SOAC: I0.MND.soac_m1       modn V(B,PSUB): ENTERING@ 0.0193212us duration:0.00312us ;
    tran: time = 19.53 ns    (97.7 %), step = 39.82 ps     (199 m%)
Number of accepted tran steps =             2757

Maximum value achieved for any signal of each quantity: 
V: V(I0.net1) = 3.621 V
I: I(V:p) = 432.8 uA

~~~~~~~~~~~~~~~~~~~~~~~~~~~~~~~~~
Post-Transient Simulation Summary
~~~~~~~~~~~~~~~~~~~~~~~~~~~~~~~~~
   -   To further speed up simulation, consider
          add ++aps on command line
   -   Non-default settings that could significantly slow down simulation
          errpreset = conservative, default moderate
          reltol = 10e-06, default 100e-06 (conservative)
~~~~~~~~~~~~~~~~~~~~~~~~~~~~~~~~~


During simulation, the CPU load for active processors is :
         0 (11.5 %)      1 (10.9 %)      2 (12.9 %)      3 (13.6 %)
         4 (27.2 %)      5 (8.2 %)       6 (5.5 %)       7 (5.6 %)
         8 (12.9 %)      9 (8.2 %)      10 (13.1 %)     11 (9.6 %)
        Total: 139.1%
Initial condition solution time: CPU = 440 us, elapsed = 442.028 us.
Intrinsic tran analysis time:    CPU = 268.405 ms, elapsed = 275.063 ms.
Total time required for tran analysis `tran': CPU = 270.084 ms, elapsed = 283.844 ms, util. = 95.2%.
Time accumulated: CPU = 55.9352 s, elapsed = 64.938 s (1m  4.9s).
Peak resident memory used = 200 Mbytes.

finalTimeOP: writing operating point information to rawfile.

Opening the PSF file ../psf/mc1_separate/198/finalTimeOP.info ...
modelParameter: writing model parameter values to rawfile.

Opening the PSF file ../psf/mc1_separate/198/modelParameter.info ...
element: writing instance parameter values to rawfile.

Opening the PSF file ../psf/mc1_separate/198/element.info ...
outputParameter: writing output parameter values to rawfile.

Opening the PSF file ../psf/mc1_separate/198/outputParameter.info ...
designParamVals: writing netlist parameters to rawfile.

Opening the PSFASCII file ../psf/mc1_separate/198/designParamVals.info ...
primitives: writing primitives to rawfile.

Opening the PSFASCII file ../psf/mc1_separate/198/primitives.info.primitives ...
subckts: writing subcircuits to rawfile.

Opening the PSFASCII file ../psf/mc1_separate/198/subckts.info.subckts ...
    mc1: iteration = 198           (99 %), step = 1            (503 m%)
199           99.50% 

************************************************
Transient Analysis `tran': time = (0 s -> 20 ns)
************************************************

Opening the PSF file ../psf/mc1_separate/199/tran.tran.tran ...

Notice from spectre during IC analysis, during transient analysis `tran', during Monte Carlo analysis `mc1'.
    GminDC = 1 pS is large enough to noticeably affect the DC solution.
        dV(I0.net3) = 2.55995 mV
        Use the `gmin_check' option to eliminate or expand this report.
Warning from spectre during check, during IC analysis, during transient analysis `tran', during Monte Carlo analysis `mc1'.
    WARNING (CMI-2943): Parameter checks have been ignored because the valid value for parameter 'trise' could not be found in 'C0'.

DC simulation time: CPU = 388 us, elapsed = 387.907 us.
Important parameter values:
    start = 0 s
    outputstart = 0 s
    stop = 20 ns
    step = 20 ps
    maxstep = 200 ps
    ic = all
    useprevic = no
    skipdc = no
    reltol = 10e-06
    abstol(V) = 1 uV
    abstol(I) = 1 pA
    temp = 27 C
    tnom = 27 C
    tempeffects = all
    errpreset = conservative
    method = gear2only
    lteratio = 10
    relref = alllocal
    cmin = 0 F
    gmin = 1 pS
    rabsshort = 1 mOhm


Notice from spectre during transient analysis `tran', during Monte Carlo analysis `mc1'.
    Multithreading is disabled due to the size of the design being too small.


Output and IC/nodeset summary:
                 save   5       (current)
                 save   17      (voltage)

    tran: time = 506.2 ps    (2.53 %), step = 26.99 ps     (135 m%)
    tran: time = 1.502 ns    (7.51 %), step = 38.54 ps     (193 m%)
    tran: time = 2.509 ns    (12.5 %), step = 28.56 ps     (143 m%)
    tran: time = 3.515 ns    (17.6 %), step = 31.19 ps     (156 m%)
    tran: time = 4.513 ns    (22.6 %), step = 18 ps         (90 m%)
    tran: time = 5.513 ns    (27.6 %), step = 14.54 ps    (72.7 m%)
SOAC: I0.MND.soac_m1       modn V(B,PSUB): LEAVING@  0.0050032us ;
SOAC: I0.MNA.soac_m1       modn V(B,PSUB): LEAVING@  0.00500881us ;
SOAC: I0.MNA.soac_m1       modn V(B,PSUB): ENTERING@ 0.00619409us duration:0.00119us ;
SOAC: I0.MND.soac_m1       modn V(B,PSUB): ENTERING@ 0.00619636us duration:0.00119us ;
    tran: time = 6.513 ns    (32.6 %), step = 16.07 ps    (80.3 m%)
    tran: time = 7.506 ns    (37.5 %), step = 33.71 ps     (169 m%)
    tran: time = 8.507 ns    (42.5 %), step = 15.64 ps    (78.2 m%)
    tran: time = 9.508 ns    (47.5 %), step = 10.79 ps      (54 m%)
SOAC: I0.MND.soac_m1       modn V(B,PSUB): LEAVING@  0.00900326us ;
SOAC: I0.MNA.soac_m1       modn V(B,PSUB): LEAVING@  0.00900894us ;
SOAC: I0.MNA.soac_m1       modn V(B,PSUB): ENTERING@ 0.0101745us duration:0.00117us ;
    tran: time = 10.51 ns    (52.5 %), step = 23.78 ps     (119 m%)
SOAC: I0.MND.soac_m1       modn V(B,PSUB): ENTERING@ 0.0113159us duration:0.00231us ;
    tran: time = 11.53 ns    (57.7 %), step = 40.2 ps      (201 m%)
    tran: time = 12.51 ns    (62.5 %), step = 18.07 ps    (90.3 m%)
SOAC: I0.MND.soac_m1       modn V(B,PSUB): LEAVING@  0.0122039us ;
    tran: time = 13.5 ns     (67.5 %), step = 26.86 ps     (134 m%)
    tran: time = 14.5 ns     (72.5 %), step = 29.95 ps     (150 m%)
SOAC: I0.MND.soac_m1       modn V(B,PSUB): ENTERING@ 0.0153213us duration:0.00312us ;
    tran: time = 15.53 ns    (77.7 %), step = 39.88 ps     (199 m%)
    tran: time = 16.51 ns    (82.6 %), step = 18.35 ps    (91.8 m%)
SOAC: I0.MND.soac_m1       modn V(B,PSUB): LEAVING@  0.0162039us ;
    tran: time = 17.5 ns     (87.5 %), step = 26.98 ps     (135 m%)
    tran: time = 18.5 ns     (92.5 %), step = 29.95 ps     (150 m%)
SOAC: I0.MND.soac_m1       modn V(B,PSUB): ENTERING@ 0.0193213us duration:0.00312us ;
    tran: time = 19.53 ns    (97.7 %), step = 39.88 ps     (199 m%)
Number of accepted tran steps =             2769

Maximum value achieved for any signal of each quantity: 
V: V(I0.net1) = 3.619 V
I: I(V:p) = 434.7 uA

~~~~~~~~~~~~~~~~~~~~~~~~~~~~~~~~~
Post-Transient Simulation Summary
~~~~~~~~~~~~~~~~~~~~~~~~~~~~~~~~~
   -   To further speed up simulation, consider
          add ++aps on command line
   -   Non-default settings that could significantly slow down simulation
          errpreset = conservative, default moderate
          reltol = 10e-06, default 100e-06 (conservative)
~~~~~~~~~~~~~~~~~~~~~~~~~~~~~~~~~


During simulation, the CPU load for active processors is :
         0 (11.5 %)      1 (10.8 %)      2 (12.9 %)      3 (13.7 %)
         4 (27.3 %)      5 (8.3 %)       6 (5.5 %)       7 (5.6 %)
         8 (12.9 %)      9 (8.2 %)      10 (13.2 %)     11 (9.6 %)
        Total: 139.4%
Initial condition solution time: CPU = 405 us, elapsed = 406.027 us.
Intrinsic tran analysis time:    CPU = 263.105 ms, elapsed = 269.738 ms.
Total time required for tran analysis `tran': CPU = 264.597 ms, elapsed = 277.397 ms, util. = 95.4%.
Time accumulated: CPU = 56.2117 s, elapsed = 65.2519 s (1m  5.3s).
Peak resident memory used = 200 Mbytes.

finalTimeOP: writing operating point information to rawfile.

Opening the PSF file ../psf/mc1_separate/199/finalTimeOP.info ...
modelParameter: writing model parameter values to rawfile.

Opening the PSF file ../psf/mc1_separate/199/modelParameter.info ...
element: writing instance parameter values to rawfile.

Opening the PSF file ../psf/mc1_separate/199/element.info ...
outputParameter: writing output parameter values to rawfile.

Opening the PSF file ../psf/mc1_separate/199/outputParameter.info ...
designParamVals: writing netlist parameters to rawfile.

Opening the PSFASCII file ../psf/mc1_separate/199/designParamVals.info ...
primitives: writing primitives to rawfile.

Opening the PSFASCII file ../psf/mc1_separate/199/primitives.info.primitives ...
subckts: writing subcircuits to rawfile.

Opening the PSFASCII file ../psf/mc1_separate/199/subckts.info.subckts ...
    mc1: iteration = 199         (99.5 %), step = 1            (503 m%)
200          100.00% 

************************************************
Transient Analysis `tran': time = (0 s -> 20 ns)
************************************************

Opening the PSF file ../psf/mc1_separate/200/tran.tran.tran ...

Notice from spectre during IC analysis, during transient analysis `tran', during Monte Carlo analysis `mc1'.
    GminDC = 1 pS is large enough to noticeably affect the DC solution.
        dV(I0.net3) = 2.46531 mV
        Use the `gmin_check' option to eliminate or expand this report.
Warning from spectre during check, during IC analysis, during transient analysis `tran', during Monte Carlo analysis `mc1'.
    WARNING (CMI-2943): Parameter checks have been ignored because the valid value for parameter 'trise' could not be found in 'C0'.

DC simulation time: CPU = 395 us, elapsed = 395.06 us.
Important parameter values:
    start = 0 s
    outputstart = 0 s
    stop = 20 ns
    step = 20 ps
    maxstep = 200 ps
    ic = all
    useprevic = no
    skipdc = no
    reltol = 10e-06
    abstol(V) = 1 uV
    abstol(I) = 1 pA
    temp = 27 C
    tnom = 27 C
    tempeffects = all
    errpreset = conservative
    method = gear2only
    lteratio = 10
    relref = alllocal
    cmin = 0 F
    gmin = 1 pS
    rabsshort = 1 mOhm


Notice from spectre during transient analysis `tran', during Monte Carlo analysis `mc1'.
    Multithreading is disabled due to the size of the design being too small.


Output and IC/nodeset summary:
                 save   5       (current)
                 save   17      (voltage)

    tran: time = 521.5 ps    (2.61 %), step = 24.5 ps      (122 m%)
    tran: time = 1.512 ns    (7.56 %), step = 27.74 ps     (139 m%)
    tran: time = 2.506 ns    (12.5 %), step = 28.42 ps     (142 m%)
    tran: time = 3.52 ns     (17.6 %), step = 32.01 ps     (160 m%)
    tran: time = 4.514 ns    (22.6 %), step = 18.11 ps    (90.6 m%)
    tran: time = 5.508 ns    (27.5 %), step = 14.86 ps    (74.3 m%)
SOAC: I0.MND.soac_m1       modn V(B,PSUB): LEAVING@  0.00500321us ;
SOAC: I0.MNA.soac_m1       modn V(B,PSUB): LEAVING@  0.0050088us ;
SOAC: I0.MNA.soac_m1       modn V(B,PSUB): ENTERING@ 0.0061944us duration:0.00119us ;
SOAC: I0.MND.soac_m1       modn V(B,PSUB): ENTERING@ 0.00619668us duration:0.00119us ;
    tran: time = 6.512 ns    (32.6 %), step = 16.05 ps    (80.2 m%)
    tran: time = 7.506 ns    (37.5 %), step = 34.37 ps     (172 m%)
    tran: time = 8.513 ns    (42.6 %), step = 15.93 ps    (79.7 m%)
    tran: time = 9.507 ns    (47.5 %), step = 11.15 ps    (55.7 m%)
SOAC: I0.MND.soac_m1       modn V(B,PSUB): LEAVING@  0.00900328us ;
SOAC: I0.MNA.soac_m1       modn V(B,PSUB): LEAVING@  0.00900894us ;
SOAC: I0.MNA.soac_m1       modn V(B,PSUB): ENTERING@ 0.0101746us duration:0.00117us ;
    tran: time = 10.51 ns    (52.5 %), step = 16.78 ps    (83.9 m%)
SOAC: I0.MND.soac_m1       modn V(B,PSUB): ENTERING@ 0.0113128us duration:0.00231us ;
    tran: time = 11.52 ns    (57.6 %), step = 39.31 ps     (197 m%)
    tran: time = 12.51 ns    (62.5 %), step = 18 ps         (90 m%)
SOAC: I0.MND.soac_m1       modn V(B,PSUB): LEAVING@  0.0122033us ;
    tran: time = 13.51 ns    (67.6 %), step = 24.6 ps      (123 m%)
    tran: time = 14.53 ns    (72.7 %), step = 35.54 ps     (178 m%)
SOAC: I0.MND.soac_m1       modn V(B,PSUB): ENTERING@ 0.0153182us duration:0.00311us ;
    tran: time = 15.53 ns    (77.6 %), step = 39.43 ps     (197 m%)
    tran: time = 16.51 ns    (82.5 %), step = 18 ps         (90 m%)
SOAC: I0.MND.soac_m1       modn V(B,PSUB): LEAVING@  0.0162032us ;
    tran: time = 17.51 ns    (87.6 %), step = 25.66 ps     (128 m%)
    tran: time = 18.53 ns    (92.7 %), step = 35.54 ps     (178 m%)
SOAC: I0.MND.soac_m1       modn V(B,PSUB): ENTERING@ 0.0193182us duration:0.00311us ;
    tran: time = 19.53 ns    (97.6 %), step = 39.43 ps     (197 m%)
Number of accepted tran steps =             2744

Maximum value achieved for any signal of each quantity: 
V: V(I0.net1) = 3.619 V
I: I(V:p) = 435.3 uA

~~~~~~~~~~~~~~~~~~~~~~~~~~~~~~~~~
Post-Transient Simulation Summary
~~~~~~~~~~~~~~~~~~~~~~~~~~~~~~~~~
   -   To further speed up simulation, consider
          add ++aps on command line
   -   Non-default settings that could significantly slow down simulation
          errpreset = conservative, default moderate
          reltol = 10e-06, default 100e-06 (conservative)
~~~~~~~~~~~~~~~~~~~~~~~~~~~~~~~~~


During simulation, the CPU load for active processors is :
         0 (11.5 %)      1 (10.8 %)      2 (12.8 %)      3 (13.6 %)
         4 (27.6 %)      5 (8.5 %)       6 (5.5 %)       7 (5.6 %)
         8 (12.8 %)      9 (8.1 %)      10 (13.1 %)     11 (9.5 %)
        Total: 139.5%
Initial condition solution time: CPU = 412 us, elapsed = 412.941 us.
Intrinsic tran analysis time:    CPU = 262.489 ms, elapsed = 270.02 ms.
Total time required for tran analysis `tran': CPU = 263.997 ms, elapsed = 279.388 ms, util. = 94.5%.
Time accumulated: CPU = 56.4877 s, elapsed = 65.5684 s (1m  5.6s).
Peak resident memory used = 200 Mbytes.

finalTimeOP: writing operating point information to rawfile.

Opening the PSF file ../psf/mc1_separate/200/finalTimeOP.info ...
modelParameter: writing model parameter values to rawfile.

Opening the PSF file ../psf/mc1_separate/200/modelParameter.info ...
element: writing instance parameter values to rawfile.

Opening the PSF file ../psf/mc1_separate/200/element.info ...
outputParameter: writing output parameter values to rawfile.

Opening the PSF file ../psf/mc1_separate/200/outputParameter.info ...
designParamVals: writing netlist parameters to rawfile.

Opening the PSFASCII file ../psf/mc1_separate/200/designParamVals.info ...
primitives: writing primitives to rawfile.

Opening the PSFASCII file ../psf/mc1_separate/200/primitives.info.primitives ...
subckts: writing subcircuits to rawfile.

Opening the PSFASCII file ../psf/mc1_separate/200/subckts.info.subckts ...
    mc1: iteration = 200          (100 %), step = 1            (503 m%)
Total time required for montecarlo analysis `mc1': CPU = 56.3389 s, elapsed = 65.0001 s (1m  5.0s), util. = 86.7%.
Time accumulated: CPU = 56.4972 s, elapsed = 65.6039 s (1m  5.6s).
Peak resident memory used = 200 Mbytes.

Licensing Information:
Lic Summary:
[21:21:44.378954] Cdslmd servers:5280@ls-dc2-fen-p1.services.bris.ac.uk:5280@ls-dc2-fen-p0.services.bris.ac.uk
[21:21:44.378979] Feature usage summary:
[21:21:44.378979] Virtuoso_Multi_mode_Simulation


Aggregate audit (9:21:44 PM, Sat Apr 20, 2024):
Time used: CPU = 56.5 s, elapsed = 65.6 s (1m  5.6s), util. = 86.1%.
Time spent in licensing: elapsed = 166 ms.
Peak memory used = 201 Mbytes.
Simulation started at: 9:20:38 PM, Sat Apr 20, 2024, ended at: 9:21:44 PM, Sat Apr 20, 2024, with elapsed time (wall clock): 65.6 s (1m  5.6s).
spectre completes with 0 errors, 216 warnings, and 408 notices.
