
Spectre (R) Circuit Simulator
Version 21.1.0.751.isr19 64bit -- 22 May 2023
Copyright (C) 1989-2023 Cadence Design Systems, Inc. All rights reserved worldwide. Cadence and Spectre are registered trademarks of Cadence Design Systems, Inc. All others are the property of their respective holders.

Includes RSA BSAFE(R) Cryptographic or Security Protocol Software from RSA Security, Inc.

User: oj23092   Host: it075679.wks.bris.ac.uk   HostID: DE89F087   PID: 908545
Memory  available: 9.5899 GB  physical: 14.0528 GB
Linux   : Rocky Linux release 8.9 (Green Obsidian)
CPU Type: Intel(R) Core(TM) i7-8700 CPU @ 3.20GHz
        Socket: Processors [Frequency] (Hyperthreaded Processor)
        0:       0 [3200.0] (  6 ),  1 [3200.0] (  7 ),  2 [3200.0] (  8 )
                 3 [3200.0] (  9 ),  4 [3200.0] ( 10 ),  5 [3200.0] ( 11 )
        
System load averages (1min, 5min, 15min) : 4.8 %, 5.6 %, 4.6 %
Hyperthreading is enabled
HPC is enabled


Simulating `input.scs' on it075679.wks.bris.ac.uk at 3:59:49 PM, Mon Mar 11, 2024 (process id: 908545).
Current working directory: /home/oj23092/VLSI_Design_Lab/Sim/lab2024/tb_invParam/adexl/results/data/MonteCarlo.1/1/lab2024:tb_invParam:1/groupRunDataDir/netlist
Command line:
     \
        /eda/cadence/2022-23/RHELx86/SPECTRE_21.10.751/tools.lnx86/bin/spectre  \
        -64 input.scs +escchars +log ../psf/spectre.out -format psfbin  \
        +rtsf -raw ../psf +aps +mt +lqtimeout 900 -maxw 5 -maxn 5  \
        +param /eda/cadence/ams/4.10/spectre/ams_range.lmts -env ade  \
        -ahdllibdir  \
        /home/oj23092/VLSI_Design_Lab/Sim/lab2024/tb_invParam/adexl/results/data/MonteCarlo.1/sharedData/Job2/ahdl/input.ahdlSimDB  \
        +logstatus

Licensing Information:
[15:59:49.289802] Configured Lic search path (21.01-s002): 5280@ls-dc2-fen-p1.services.bris.ac.uk:5280@ls-dc2-fen-p0.services.bris.ac.uk

Licensing Information:
[15:59:49.460617] Periodic Lic check successful

Loading /eda/cadence/2022-23/RHELx86/SPECTRE_21.10.751/tools.lnx86/cmi/lib/64bit/5.0/libinfineon_sh.so ...
Loading /eda/cadence/2022-23/RHELx86/SPECTRE_21.10.751/tools.lnx86/cmi/lib/64bit/5.0/libphilips_o_sh.so ...
Loading /eda/cadence/2022-23/RHELx86/SPECTRE_21.10.751/tools.lnx86/cmi/lib/64bit/5.0/libphilips_sh.so ...
Loading /eda/cadence/2022-23/RHELx86/SPECTRE_21.10.751/tools.lnx86/cmi/lib/64bit/5.0/libsparam_sh.so ...
Loading /eda/cadence/2022-23/RHELx86/SPECTRE_21.10.751/tools.lnx86/cmi/lib/64bit/5.0/libstmodels_sh.so ...
Reading file:  /home/oj23092/VLSI_Design_Lab/Sim/lab2024/tb_invParam/adexl/results/data/MonteCarlo.1/1/lab2024:tb_invParam:1/groupRunDataDir/netlist/input.scs
Reading file:  /eda/cadence/ams/4.10/spectre/ams_range.lmts

Warning from spectre during read of parameter soft limits file `/eda/cadence/ams/4.10/spectre/ams_range.lmts', during circuit read-in.
    WARNING (SPECTRE-8360): line 1511: `ac' is an undefined primitive device.
    WARNING (SPECTRE-8360): line 1512: `ac' is an undefined primitive device.
    WARNING (SPECTRE-8360): line 1513: `ac' is an undefined primitive device.
    WARNING (SPECTRE-8360): line 1514: `ac' is an undefined primitive device.
    WARNING (SPECTRE-8360): line 1515: `ac' is an undefined primitive device.
        Further occurrences of this warning will be suppressed.

Reading file:  /eda/cadence/2022-23/RHELx86/SPECTRE_21.10.751/tools.lnx86/spectre/etc/configs/spectre.cfg
Reading file:  /eda/cadence/ams/4.10/spectre/c35/soac/soac.scs
Reading file:  /eda/cadence/ams/4.10/spectre/c35/soac/processOption.scs
Reading file:  /eda/cadence/ams/4.10/spectre/c35/soac/process.scs
Reading file:  /eda/cadence/ams/4.10/spectre/c35/soac/soac.va

Warning from spectre during AHDL read-in.
    WARNING (VACOMP-2435): The environment variable CDS_AHDLCMI_ENABLE is no longer supported. Therefore, the simulator will use the default compiled C code flow.

Reading link:  /eda/cadence/2022-23/RHELx86/SPECTRE_21.10.751/tools.lnx86/spectre/etc/ahdl/constants.h
Reading file:  /eda/cadence/2022-23/RHELx86/SPECTRE_21.10.751/tools.lnx86/spectre/etc/ahdl/constants.vams
Reading link:  /eda/cadence/2022-23/RHELx86/SPECTRE_21.10.751/tools.lnx86/spectre/etc/ahdl/discipline.h
Reading file:  /eda/cadence/2022-23/RHELx86/SPECTRE_21.10.751/tools.lnx86/spectre/etc/ahdl/disciplines.vams
Reading file:  /eda/cadence/ams/4.10/spectre/c35/processOption/C35B4C3.scs
Reading file:  /eda/cadence/ams/4.10/spectre/c35/soac/cmos53.scs
Reading file:  /eda/cadence/ams/4.10/spectre/c35/soac/res.scs
Reading file:  /eda/cadence/ams/4.10/spectre/c35/soac/cap.scs
Reading file:  /eda/cadence/ams/4.10/spectre/c35/soac/bip.scs
Reading file:  /eda/cadence/ams/4.10/spectre/c35/soac/ind.scs
Reading file:  /eda/cadence/ams/4.10/spectre/c35/soac/esddiode.scs
Time for NDB Parsing: CPU = 259.361 ms, elapsed = 809.48 ms.
Time accumulated: CPU = 655.805 ms, elapsed = 809.488 ms.
Peak resident memory used = 154 Mbytes.

TCP: opening server port it075679.wks.bris.ac.uk:47237
Existing shared object for module modn_ahdl is up to date.
Installed compiled interface for modn_ahdl.
Existing shared object for module modp_ahdl is up to date.
Installed compiled interface for modp_ahdl.
Time for Elaboration: CPU = 37.052 ms, elapsed = 43.5801 ms.
Time accumulated: CPU = 693.21 ms, elapsed = 853.419 ms.
Peak resident memory used = 164 Mbytes.


Notice from spectre during hierarchy flattening.
    The value 'psf' specified for the 'checklimitdest' option will no longer be supported in future releases. Use 'spectre -h' to see other recommended values for the 'checklimitdest' option.


Time for EDB Visiting: CPU = 3.284 ms, elapsed = 3.95608 ms.
Time accumulated: CPU = 696.851 ms, elapsed = 857.729 ms.
Peak resident memory used = 165 Mbytes.

Loading /eda/cadence/2022-23/RHELx86/SPECTRE_21.10.751/tools.lnx86/mdl/lib/64bit/libSpectreEH_sh.so ...

Warning from spectre during initial setup.
    WARNING (SPECTRE-16460): SOAC_cvarm_vspsub:Specified subcircuit master `cvarm' was not found.
    WARNING (SPECTRE-16462): SOAC_cvarm_vspsub:Error in specification of subcircuit master. Assert is ignored.
    WARNING (SPECTRE-16460): SOAC_cvarm_vbs:Specified subcircuit master `cvarm' was not found.
    WARNING (SPECTRE-16462): SOAC_cvarm_vbs:Error in specification of subcircuit master. Assert is ignored.
    WARNING (SPECTRE-16460): SOAC_cvarm_vgb:Specified subcircuit master `cvarm' was not found.
    WARNING (SPECTRE-16462): SOAC_cvarm_vgb:Error in specification of subcircuit master. Assert is ignored.
    WARNING (SPECTRE-16460): SOAC_cvart_vspsub:Specified subcircuit master `cvart' was not found.
    WARNING (SPECTRE-16462): SOAC_cvart_vspsub:Error in specification of subcircuit master. Assert is ignored.
    WARNING (SPECTRE-16460): SOAC_cvart_vbs:Specified subcircuit master `cvart' was not found.
        Further occurrences of this warning will be suppressed.
    WARNING (SPECTRE-16462): SOAC_cvart_vbs:Error in specification of subcircuit master. Assert is ignored.
        Further occurrences of this warning will be suppressed.
Notice from spectre during initial setup.
    Ignorevaref=yes is ignored since all nodes are connected to Verilog-A modules.
Notice from spectre during topology check.
    Only one connection to the following 2 nodes:
        I0.MN0.psub!
        I0.MP0.psub!
Notice from spectre during initial setup.
    Multithreading is disabled due to the size of the design being too small.


Global user options:
         psfversion = 1.4.0
            vabstol = 1e-06
            iabstol = 1e-12
               temp = 27
           homotopy = 5
              limit = delta
         compatible = spice2
               gmin = 1e-12
             rforce = 1
           maxnotes = 5
           maxwarns = 5
             digits = 5
               cols = 80
             pivrel = 0.001
           sensfile = ../psf/sens.output
     checklimitdest = psf
     enable_pre_ver = yes
      ignorezerovar = yes
               save = allpub
             reltol = 0.0001
               tnom = 27
             scalem = 1
              scale = 1

Scoped user options:

Circuit inventory:
              nodes 5
            bsim3v3 2     
          capacitor 1     
          modn_ahdl 1     
          modp_ahdl 1     
            vsource 2     

Analysis and control statement inventory:
               info 7     
         montecarlo 1     
               tran 1     

Output statements:
             .probe 0     
           .measure 0     
               save 1     

Design checks inventory:
          paramtest 2     
             assert 175   


Notice from spectre during initial setup.
    APS enabled.
    72 warnings suppressed.

Time for parsing: CPU = 18.029 ms, elapsed = 2.06747 s.
Time accumulated: CPU = 715.248 ms, elapsed = 2.92558 s.
Peak resident memory used = 171 Mbytes.

~~~~~~~~~~~~~~~~~~~~~~
Pre-Simulation Summary
~~~~~~~~~~~~~~~~~~~~~~
   -   (APS) Multi-threading. The recommended number of threads is 1, consider adding +mt=1 on command line.
~~~~~~~~~~~~~~~~~~~~~~

**************************************************
Monte Carlo Analysis `mc1': iteration = (1 -> 100)
**************************************************
Important parameter values:
    seed = 12345
    sampling = standard
    variations = all
    firstrun = 1
    numruns = 100
    nullmfactorcorrelation = no
    donominal = yes
    method = standard

**** Performing nominal run for `mc1'

Notice from spectre during transient analysis `tran', during Monte Carlo analysis `mc1'.
    No checklimit analysis defined for asserts. A default checklimit analysis 'SpectreChecklimitAnal' has been created with all asserts enabled.


************************************************
Transient Analysis `tran': time = (0 s -> 10 ns)
************************************************

Warning from spectre during check, during IC analysis, during transient analysis `tran', during Monte Carlo analysis `mc1'.
    WARNING (CMI-2943): Parameter checks have been ignored because the valid value for parameter 'trise' could not be found in 'C0'.

DC simulation time: CPU = 700 us, elapsed = 700.951 us.

Opening the PSF file ../psf/nom/tran.tran.tran ...
Important parameter values:
    start = 0 s
    outputstart = 0 s
    stop = 10 ns
    step = 10 ps
    maxstep = 100 ps
    ic = all
    useprevic = no
    skipdc = no
    reltol = 10e-06
    abstol(V) = 1 uV
    abstol(I) = 1 pA
    temp = 27 C
    tnom = 27 C
    tempeffects = all
    errpreset = conservative
    method = gear2only
    lteratio = 10
    relref = alllocal
    cmin = 0 F
    gmin = 1 pS
    rabsshort = 1 mOhm


Notice from spectre during transient analysis `tran', during Monte Carlo analysis `mc1'.
    Multithreading is disabled due to the size of the design being too small.


Output and IC/nodeset summary:
                 save   2       (current)
                 save   5       (voltage)

    tran: time = 255.9 ps    (2.56 %), step = 7.362 ps    (73.6 m%)
    tran: time = 753.9 ps    (7.54 %), step = 100 ps          (1 %)
    tran: time = 1.25 ns     (12.5 %), step = 3.375 ps    (33.7 m%)
    tran: time = 1.78 ns     (17.8 %), step = 46.12 ps     (461 m%)
    tran: time = 2.255 ns    (22.5 %), step = 7.268 ps    (72.7 m%)
    tran: time = 2.836 ns    (28.4 %), step = 100 ps          (1 %)
    tran: time = 3.25 ns     (32.5 %), step = 3.375 ps    (33.8 m%)
    tran: time = 3.78 ns     (37.8 %), step = 46.16 ps     (462 m%)
    tran: time = 4.255 ns    (42.5 %), step = 7.268 ps    (72.7 m%)
    tran: time = 4.836 ns    (48.4 %), step = 100 ps          (1 %)
    tran: time = 5.25 ns     (52.5 %), step = 3.375 ps    (33.8 m%)
    tran: time = 5.78 ns     (57.8 %), step = 46.16 ps     (462 m%)
    tran: time = 6.255 ns    (62.5 %), step = 7.268 ps    (72.7 m%)
    tran: time = 6.836 ns    (68.4 %), step = 100 ps          (1 %)
    tran: time = 7.25 ns     (72.5 %), step = 3.375 ps    (33.8 m%)
    tran: time = 7.78 ns     (77.8 %), step = 46.16 ps     (462 m%)
    tran: time = 8.255 ns    (82.5 %), step = 7.268 ps    (72.7 m%)
    tran: time = 8.836 ns    (88.4 %), step = 100 ps          (1 %)
    tran: time = 9.25 ns     (92.5 %), step = 3.375 ps    (33.8 m%)
    tran: time = 9.78 ns     (97.8 %), step = 46.16 ps     (462 m%)
Number of accepted tran steps =             870

Maximum value achieved for any signal of each quantity: 
V: V(net3) = 3.37 V
I: I(V0:p) = 416.9 uA

~~~~~~~~~~~~~~~~~~~~~~~~~~~~~~~~~
Post-Transient Simulation Summary
~~~~~~~~~~~~~~~~~~~~~~~~~~~~~~~~~
   -   To further speed up simulation, consider
          add ++aps on command line
   -   Non-default settings that could significantly slow down simulation
          errpreset = conservative, default moderate
          reltol = 10e-06, default 100e-06 (conservative)
~~~~~~~~~~~~~~~~~~~~~~~~~~~~~~~~~


During simulation, the CPU load for active processors is :
         0 (26.1 %)      1 (8.5 %)       2 (20.2 %)      3 (4.6 %)
         4 (14.9 %)      5 (18.4 %)      6 (7.5 %)       7 (8.9 %)
         9 (4.6 %)      10 (2.9 %)      11 (4.9 %)      
        Total: 121.4%
Initial condition solution time: CPU = 776 us, elapsed = 795.126 us.
Intrinsic tran analysis time:    CPU = 51.238 ms, elapsed = 56.5469 ms.
Total time required for tran analysis `tran': CPU = 115.74 ms, elapsed = 156.903 ms, util. = 73.8%.
Time accumulated: CPU = 844.858 ms, elapsed = 3.10152 s.
Peak resident memory used = 179 Mbytes.

finalTimeOP: writing operating point information to rawfile.

Opening the PSF file ../psf/nom/finalTimeOP.info ...
modelParameter: writing model parameter values to rawfile.

Opening the PSF file ../psf/nom/modelParameter.info ...
element: writing instance parameter values to rawfile.

Opening the PSF file ../psf/nom/element.info ...
outputParameter: writing output parameter values to rawfile.

Opening the PSF file ../psf/nom/outputParameter.info ...
designParamVals: writing netlist parameters to rawfile.

Opening the PSFASCII file ../psf/nom/designParamVals.info ...
primitives: writing primitives to rawfile.

Opening the PSFASCII file ../psf/nom/primitives.info.primitives ...
subckts: writing subcircuits to rawfile.

Opening the PSFASCII file ../psf/nom/subckts.info.subckts ...
Opening process scalar file:  /home/oj23092/VLSI_Design_Lab/Sim/lab2024/tb_invParam/adexl/results/data/MonteCarlo.1/1/lab2024:tb_invParam:1/groupRunDataDir/netlist/../psf/../monteCarlo/processData
Opening process param file:  /home/oj23092/VLSI_Design_Lab/Sim/lab2024/tb_invParam/adexl/results/data/MonteCarlo.1/1/lab2024:tb_invParam:1/groupRunDataDir/netlist/../psf/../monteCarlo/processParam
Opening process full param file:  /home/oj23092/VLSI_Design_Lab/Sim/lab2024/tb_invParam/adexl/results/data/MonteCarlo.1/1/lab2024:tb_invParam:1/groupRunDataDir/netlist/../psf/mc1.process_full.mcparam
Opening process correlation param file:  /home/oj23092/VLSI_Design_Lab/Sim/lab2024/tb_invParam/adexl/results/data/MonteCarlo.1/1/lab2024:tb_invParam:1/groupRunDataDir/netlist/../psf/mc1.process.correlate.mcparam
Opening mismatch full param file:  /home/oj23092/VLSI_Design_Lab/Sim/lab2024/tb_invParam/adexl/results/data/MonteCarlo.1/1/lab2024:tb_invParam:1/groupRunDataDir/netlist/../psf/mc1.mismatch_full.mcparam
Opening mismatch correlation param file:  /home/oj23092/VLSI_Design_Lab/Sim/lab2024/tb_invParam/adexl/results/data/MonteCarlo.1/1/lab2024:tb_invParam:1/groupRunDataDir/netlist/../psf/mc1.mismatch.correlate.mcparam
Opening iteration number and data-directory mapping file:  /home/oj23092/VLSI_Design_Lab/Sim/lab2024/tb_invParam/adexl/results/data/MonteCarlo.1/1/lab2024:tb_invParam:1/groupRunDataDir/netlist/../psf/mc1.mapping

Statistical parameters:
    Defined process parameters: 629
    Defined mismatch parameters (subckt based): 86
    Non-referenced mismatch parameters: 86
    Number of random variables: 629
    Gaussian truncation for process parameters: 4.00 sigma
    Gaussian truncation for mismatch parameters: 4.00 sigma


Opening the PSF file ../psf/mc1_tran.montecarlo ...

Opening the PSF file ../psf/mc1_finalTimeOP.montecarlo ...

Opening the PSF file ../psf/mc1_modelParameter.montecarlo ...

Opening the PSF file ../psf/mc1_element.montecarlo ...

Opening the PSF file ../psf/mc1_outputParameter.montecarlo ...

Opening the PSF file ../psf/mc1_designParamVals.montecarlo ...

Opening the PSF file ../psf/mc1_primitives.montecarlo ...

Opening the PSF file ../psf/mc1_subckts.montecarlo ...

**** Performing monte carlo loop for `mc1'

1              0.00% 

************************************************
Transient Analysis `tran': time = (0 s -> 10 ns)
************************************************

Opening the PSF file ../psf/mc1_separate/001/tran.tran.tran ...

Warning from spectre at iteration = 1 during check, during IC analysis, during transient analysis `tran', during Monte Carlo analysis `mc1'.
    WARNING (CMI-2943): Parameter checks have been ignored because the valid value for parameter 'trise' could not be found in 'C0'.

DC simulation time: CPU = 255 us, elapsed = 255.108 us.
Important parameter values:
    start = 0 s
    outputstart = 0 s
    stop = 10 ns
    step = 10 ps
    maxstep = 100 ps
    ic = all
    useprevic = no
    skipdc = no
    reltol = 10e-06
    abstol(V) = 1 uV
    abstol(I) = 1 pA
    temp = 27 C
    tnom = 27 C
    tempeffects = all
    errpreset = conservative
    method = gear2only
    lteratio = 10
    relref = alllocal
    cmin = 0 F
    gmin = 1 pS
    rabsshort = 1 mOhm


Notice from spectre at iteration = 1 during transient analysis `tran', during Monte Carlo analysis `mc1'.
    Multithreading is disabled due to the size of the design being too small.


Output and IC/nodeset summary:
                 save   2       (current)
                 save   5       (voltage)

    tran: time = 255.9 ps    (2.56 %), step = 7.362 ps    (73.6 m%)
    tran: time = 753.9 ps    (7.54 %), step = 100 ps          (1 %)
    tran: time = 1.25 ns     (12.5 %), step = 3.375 ps    (33.7 m%)
    tran: time = 1.78 ns     (17.8 %), step = 46.12 ps     (461 m%)
    tran: time = 2.255 ns    (22.5 %), step = 7.268 ps    (72.7 m%)
    tran: time = 2.836 ns    (28.4 %), step = 100 ps          (1 %)
    tran: time = 3.25 ns     (32.5 %), step = 3.375 ps    (33.8 m%)
    tran: time = 3.78 ns     (37.8 %), step = 46.16 ps     (462 m%)
    tran: time = 4.255 ns    (42.5 %), step = 7.268 ps    (72.7 m%)
    tran: time = 4.836 ns    (48.4 %), step = 100 ps          (1 %)
    tran: time = 5.25 ns     (52.5 %), step = 3.375 ps    (33.8 m%)
    tran: time = 5.78 ns     (57.8 %), step = 46.16 ps     (462 m%)
    tran: time = 6.255 ns    (62.5 %), step = 7.268 ps    (72.7 m%)
    tran: time = 6.836 ns    (68.4 %), step = 100 ps          (1 %)
    tran: time = 7.25 ns     (72.5 %), step = 3.375 ps    (33.8 m%)
    tran: time = 7.78 ns     (77.8 %), step = 46.16 ps     (462 m%)
    tran: time = 8.255 ns    (82.5 %), step = 7.268 ps    (72.7 m%)
    tran: time = 8.836 ns    (88.4 %), step = 100 ps          (1 %)
    tran: time = 9.25 ns     (92.5 %), step = 3.375 ps    (33.8 m%)
    tran: time = 9.78 ns     (97.8 %), step = 46.16 ps     (462 m%)
Number of accepted tran steps =             870

Maximum value achieved for any signal of each quantity: 
V: V(net3) = 3.37 V
I: I(V0:p) = 416.9 uA

~~~~~~~~~~~~~~~~~~~~~~~~~~~~~~~~~
Post-Transient Simulation Summary
~~~~~~~~~~~~~~~~~~~~~~~~~~~~~~~~~
   -   To further speed up simulation, consider
          add ++aps on command line
   -   Non-default settings that could significantly slow down simulation
          errpreset = conservative, default moderate
          reltol = 10e-06, default 100e-06 (conservative)
~~~~~~~~~~~~~~~~~~~~~~~~~~~~~~~~~


During simulation, the CPU load for active processors is :
         0 (25.5 %)      1 (7.7 %)       2 (18.3 %)      3 (4.2 %)
         4 (13.8 %)      5 (17.9 %)      6 (8.1 %)       7 (11.9 %)
         9 (4.5 %)      10 (2.6 %)      11 (4.8 %)      
        Total: 119.6%
Initial condition solution time: CPU = 298 us, elapsed = 304.937 us.
Intrinsic tran analysis time:    CPU = 50.655 ms, elapsed = 56.7079 ms.
Total time required for tran analysis `tran': CPU = 53.981 ms, elapsed = 64.6329 ms, util. = 83.5%.
Time accumulated: CPU = 968.153 ms, elapsed = 3.29519 s.
Peak resident memory used = 186 Mbytes.

finalTimeOP: writing operating point information to rawfile.

Opening the PSF file ../psf/mc1_separate/001/finalTimeOP.info ...
modelParameter: writing model parameter values to rawfile.

Opening the PSF file ../psf/mc1_separate/001/modelParameter.info ...
element: writing instance parameter values to rawfile.

Opening the PSF file ../psf/mc1_separate/001/element.info ...
outputParameter: writing output parameter values to rawfile.

Opening the PSF file ../psf/mc1_separate/001/outputParameter.info ...
designParamVals: writing netlist parameters to rawfile.

Opening the PSFASCII file ../psf/mc1_separate/001/designParamVals.info ...
primitives: writing primitives to rawfile.

Opening the PSFASCII file ../psf/mc1_separate/001/primitives.info.primitives ...
subckts: writing subcircuits to rawfile.

Opening the PSFASCII file ../psf/mc1_separate/001/subckts.info.subckts ...
2              1.01% 

************************************************
Transient Analysis `tran': time = (0 s -> 10 ns)
************************************************

Opening the PSF file ../psf/mc1_separate/002/tran.tran.tran ...

Warning from spectre during check, during IC analysis, during transient analysis `tran', during Monte Carlo analysis `mc1'.
    WARNING (CMI-2943): Parameter checks have been ignored because the valid value for parameter 'trise' could not be found in 'C0'.

DC simulation time: CPU = 228 us, elapsed = 243.187 us.
Important parameter values:
    start = 0 s
    outputstart = 0 s
    stop = 10 ns
    step = 10 ps
    maxstep = 100 ps
    ic = all
    useprevic = no
    skipdc = no
    reltol = 10e-06
    abstol(V) = 1 uV
    abstol(I) = 1 pA
    temp = 27 C
    tnom = 27 C
    tempeffects = all
    errpreset = conservative
    method = gear2only
    lteratio = 10
    relref = alllocal
    cmin = 0 F
    gmin = 1 pS
    rabsshort = 1 mOhm


Notice from spectre during transient analysis `tran', during Monte Carlo analysis `mc1'.
    Multithreading is disabled due to the size of the design being too small.


Output and IC/nodeset summary:
                 save   2       (current)
                 save   5       (voltage)

    tran: time = 255.9 ps    (2.56 %), step = 7.362 ps    (73.6 m%)
    tran: time = 753.9 ps    (7.54 %), step = 100 ps          (1 %)
    tran: time = 1.25 ns     (12.5 %), step = 3.375 ps    (33.7 m%)
    tran: time = 1.78 ns     (17.8 %), step = 46.12 ps     (461 m%)
    tran: time = 2.255 ns    (22.5 %), step = 7.268 ps    (72.7 m%)
    tran: time = 2.836 ns    (28.4 %), step = 100 ps          (1 %)
    tran: time = 3.25 ns     (32.5 %), step = 3.375 ps    (33.8 m%)
    tran: time = 3.78 ns     (37.8 %), step = 46.16 ps     (462 m%)
    tran: time = 4.255 ns    (42.5 %), step = 7.268 ps    (72.7 m%)
    tran: time = 4.836 ns    (48.4 %), step = 100 ps          (1 %)
    tran: time = 5.25 ns     (52.5 %), step = 3.375 ps    (33.8 m%)
    tran: time = 5.78 ns     (57.8 %), step = 46.16 ps     (462 m%)
    tran: time = 6.255 ns    (62.5 %), step = 7.268 ps    (72.7 m%)
    tran: time = 6.836 ns    (68.4 %), step = 100 ps          (1 %)
    tran: time = 7.25 ns     (72.5 %), step = 3.375 ps    (33.8 m%)
    tran: time = 7.78 ns     (77.8 %), step = 46.16 ps     (462 m%)
    tran: time = 8.255 ns    (82.5 %), step = 7.268 ps    (72.7 m%)
    tran: time = 8.836 ns    (88.4 %), step = 100 ps          (1 %)
    tran: time = 9.25 ns     (92.5 %), step = 3.375 ps    (33.8 m%)
    tran: time = 9.78 ns     (97.8 %), step = 46.16 ps     (462 m%)
Number of accepted tran steps =             870

Maximum value achieved for any signal of each quantity: 
V: V(net3) = 3.37 V
I: I(V0:p) = 416.9 uA

~~~~~~~~~~~~~~~~~~~~~~~~~~~~~~~~~
Post-Transient Simulation Summary
~~~~~~~~~~~~~~~~~~~~~~~~~~~~~~~~~
   -   To further speed up simulation, consider
          add ++aps on command line
   -   Non-default settings that could significantly slow down simulation
          errpreset = conservative, default moderate
          reltol = 10e-06, default 100e-06 (conservative)
~~~~~~~~~~~~~~~~~~~~~~~~~~~~~~~~~


During simulation, the CPU load for active processors is :
         0 (27.0 %)      1 (7.4 %)       2 (17.6 %)      3 (4.0 %)
         4 (13.3 %)      5 (17.6 %)      6 (7.7 %)       7 (12.0 %)
         9 (4.3 %)      10 (2.5 %)      11 (4.6 %)      
        Total: 118.4%
Initial condition solution time: CPU = 273 us, elapsed = 293.97 us.
Intrinsic tran analysis time:    CPU = 51.261 ms, elapsed = 57.1442 ms.
Total time required for tran analysis `tran': CPU = 54.286 ms, elapsed = 64.157 ms, util. = 84.6%.
Time accumulated: CPU = 1.05118 s, elapsed = 3.42276 s.
Peak resident memory used = 187 Mbytes.

finalTimeOP: writing operating point information to rawfile.

Opening the PSF file ../psf/mc1_separate/002/finalTimeOP.info ...
modelParameter: writing model parameter values to rawfile.

Opening the PSF file ../psf/mc1_separate/002/modelParameter.info ...
element: writing instance parameter values to rawfile.

Opening the PSF file ../psf/mc1_separate/002/element.info ...
outputParameter: writing output parameter values to rawfile.

Opening the PSF file ../psf/mc1_separate/002/outputParameter.info ...
designParamVals: writing netlist parameters to rawfile.

Opening the PSFASCII file ../psf/mc1_separate/002/designParamVals.info ...
primitives: writing primitives to rawfile.

Opening the PSFASCII file ../psf/mc1_separate/002/primitives.info.primitives ...
subckts: writing subcircuits to rawfile.

Opening the PSFASCII file ../psf/mc1_separate/002/subckts.info.subckts ...
3              2.02% 

************************************************
Transient Analysis `tran': time = (0 s -> 10 ns)
************************************************

Opening the PSF file ../psf/mc1_separate/003/tran.tran.tran ...

Warning from spectre during check, during IC analysis, during transient analysis `tran', during Monte Carlo analysis `mc1'.
    WARNING (CMI-2943): Parameter checks have been ignored because the valid value for parameter 'trise' could not be found in 'C0'.

DC simulation time: CPU = 230 us, elapsed = 263.929 us.
Important parameter values:
    start = 0 s
    outputstart = 0 s
    stop = 10 ns
    step = 10 ps
    maxstep = 100 ps
    ic = all
    useprevic = no
    skipdc = no
    reltol = 10e-06
    abstol(V) = 1 uV
    abstol(I) = 1 pA
    temp = 27 C
    tnom = 27 C
    tempeffects = all
    errpreset = conservative
    method = gear2only
    lteratio = 10
    relref = alllocal
    cmin = 0 F
    gmin = 1 pS
    rabsshort = 1 mOhm


Notice from spectre during transient analysis `tran', during Monte Carlo analysis `mc1'.
    Multithreading is disabled due to the size of the design being too small.


Output and IC/nodeset summary:
                 save   2       (current)
                 save   5       (voltage)

    tran: time = 255.9 ps    (2.56 %), step = 7.362 ps    (73.6 m%)
    tran: time = 753.9 ps    (7.54 %), step = 100 ps          (1 %)
    tran: time = 1.25 ns     (12.5 %), step = 3.375 ps    (33.7 m%)
    tran: time = 1.78 ns     (17.8 %), step = 46.12 ps     (461 m%)
    tran: time = 2.255 ns    (22.5 %), step = 7.268 ps    (72.7 m%)
    tran: time = 2.836 ns    (28.4 %), step = 100 ps          (1 %)
    tran: time = 3.25 ns     (32.5 %), step = 3.375 ps    (33.8 m%)
    tran: time = 3.78 ns     (37.8 %), step = 46.16 ps     (462 m%)
    tran: time = 4.255 ns    (42.5 %), step = 7.268 ps    (72.7 m%)
    tran: time = 4.836 ns    (48.4 %), step = 100 ps          (1 %)
    tran: time = 5.25 ns     (52.5 %), step = 3.375 ps    (33.8 m%)
    tran: time = 5.78 ns     (57.8 %), step = 46.16 ps     (462 m%)
    tran: time = 6.255 ns    (62.5 %), step = 7.268 ps    (72.7 m%)
    tran: time = 6.836 ns    (68.4 %), step = 100 ps          (1 %)
    tran: time = 7.25 ns     (72.5 %), step = 3.375 ps    (33.8 m%)
    tran: time = 7.78 ns     (77.8 %), step = 46.16 ps     (462 m%)
    tran: time = 8.255 ns    (82.5 %), step = 7.268 ps    (72.7 m%)
    tran: time = 8.836 ns    (88.4 %), step = 100 ps          (1 %)
    tran: time = 9.25 ns     (92.5 %), step = 3.375 ps    (33.8 m%)
    tran: time = 9.78 ns     (97.8 %), step = 46.16 ps     (462 m%)
Number of accepted tran steps =             870

Maximum value achieved for any signal of each quantity: 
V: V(net3) = 3.37 V
I: I(V0:p) = 416.9 uA

~~~~~~~~~~~~~~~~~~~~~~~~~~~~~~~~~
Post-Transient Simulation Summary
~~~~~~~~~~~~~~~~~~~~~~~~~~~~~~~~~
   -   To further speed up simulation, consider
          add ++aps on command line
   -   Non-default settings that could significantly slow down simulation
          errpreset = conservative, default moderate
          reltol = 10e-06, default 100e-06 (conservative)
~~~~~~~~~~~~~~~~~~~~~~~~~~~~~~~~~


During simulation, the CPU load for active processors is :
         0 (28.1 %)      1 (7.1 %)       2 (16.9 %)      3 (3.8 %)
         4 (13.4 %)      5 (17.2 %)      6 (7.5 %)       7 (11.9 %)
         9 (4.2 %)      10 (2.4 %)      11 (4.5 %)      
        Total: 117.2%
Initial condition solution time: CPU = 277 us, elapsed = 315.905 us.
Intrinsic tran analysis time:    CPU = 52.132 ms, elapsed = 58.2778 ms.
Total time required for tran analysis `tran': CPU = 55.221 ms, elapsed = 66.1871 ms, util. = 83.4%.
Time accumulated: CPU = 1.13461 s, elapsed = 3.55305 s.
Peak resident memory used = 187 Mbytes.

finalTimeOP: writing operating point information to rawfile.

Opening the PSF file ../psf/mc1_separate/003/finalTimeOP.info ...
modelParameter: writing model parameter values to rawfile.

Opening the PSF file ../psf/mc1_separate/003/modelParameter.info ...
element: writing instance parameter values to rawfile.

Opening the PSF file ../psf/mc1_separate/003/element.info ...
outputParameter: writing output parameter values to rawfile.

Opening the PSF file ../psf/mc1_separate/003/outputParameter.info ...
designParamVals: writing netlist parameters to rawfile.

Opening the PSFASCII file ../psf/mc1_separate/003/designParamVals.info ...
primitives: writing primitives to rawfile.

Opening the PSFASCII file ../psf/mc1_separate/003/primitives.info.primitives ...
subckts: writing subcircuits to rawfile.

Opening the PSFASCII file ../psf/mc1_separate/003/subckts.info.subckts ...
4              3.03% 

************************************************
Transient Analysis `tran': time = (0 s -> 10 ns)
************************************************

Opening the PSF file ../psf/mc1_separate/004/tran.tran.tran ...

Warning from spectre during check, during IC analysis, during transient analysis `tran', during Monte Carlo analysis `mc1'.
    WARNING (CMI-2943): Parameter checks have been ignored because the valid value for parameter 'trise' could not be found in 'C0'.

DC simulation time: CPU = 226 us, elapsed = 226.974 us.
Important parameter values:
    start = 0 s
    outputstart = 0 s
    stop = 10 ns
    step = 10 ps
    maxstep = 100 ps
    ic = all
    useprevic = no
    skipdc = no
    reltol = 10e-06
    abstol(V) = 1 uV
    abstol(I) = 1 pA
    temp = 27 C
    tnom = 27 C
    tempeffects = all
    errpreset = conservative
    method = gear2only
    lteratio = 10
    relref = alllocal
    cmin = 0 F
    gmin = 1 pS
    rabsshort = 1 mOhm


Notice from spectre during transient analysis `tran', during Monte Carlo analysis `mc1'.
    Multithreading is disabled due to the size of the design being too small.


Output and IC/nodeset summary:
                 save   2       (current)
                 save   5       (voltage)

    tran: time = 255.9 ps    (2.56 %), step = 7.362 ps    (73.6 m%)
    tran: time = 753.9 ps    (7.54 %), step = 100 ps          (1 %)
    tran: time = 1.25 ns     (12.5 %), step = 3.375 ps    (33.7 m%)
    tran: time = 1.78 ns     (17.8 %), step = 46.12 ps     (461 m%)
    tran: time = 2.255 ns    (22.5 %), step = 7.268 ps    (72.7 m%)
    tran: time = 2.836 ns    (28.4 %), step = 100 ps          (1 %)
    tran: time = 3.25 ns     (32.5 %), step = 3.375 ps    (33.8 m%)
    tran: time = 3.78 ns     (37.8 %), step = 46.16 ps     (462 m%)
    tran: time = 4.255 ns    (42.5 %), step = 7.268 ps    (72.7 m%)
    tran: time = 4.836 ns    (48.4 %), step = 100 ps          (1 %)
    tran: time = 5.25 ns     (52.5 %), step = 3.375 ps    (33.8 m%)
    tran: time = 5.78 ns     (57.8 %), step = 46.16 ps     (462 m%)
    tran: time = 6.255 ns    (62.5 %), step = 7.268 ps    (72.7 m%)
    tran: time = 6.836 ns    (68.4 %), step = 100 ps          (1 %)
    tran: time = 7.25 ns     (72.5 %), step = 3.375 ps    (33.8 m%)
    tran: time = 7.78 ns     (77.8 %), step = 46.16 ps     (462 m%)
    tran: time = 8.255 ns    (82.5 %), step = 7.268 ps    (72.7 m%)
    tran: time = 8.836 ns    (88.4 %), step = 100 ps          (1 %)
    tran: time = 9.25 ns     (92.5 %), step = 3.375 ps    (33.8 m%)
    tran: time = 9.78 ns     (97.8 %), step = 46.16 ps     (462 m%)
Number of accepted tran steps =             870

Maximum value achieved for any signal of each quantity: 
V: V(net3) = 3.37 V
I: I(V0:p) = 416.9 uA

~~~~~~~~~~~~~~~~~~~~~~~~~~~~~~~~~
Post-Transient Simulation Summary
~~~~~~~~~~~~~~~~~~~~~~~~~~~~~~~~~
   -   To further speed up simulation, consider
          add ++aps on command line
   -   Non-default settings that could significantly slow down simulation
          errpreset = conservative, default moderate
          reltol = 10e-06, default 100e-06 (conservative)
~~~~~~~~~~~~~~~~~~~~~~~~~~~~~~~~~


During simulation, the CPU load for active processors is :
         0 (29.4 %)      1 (6.8 %)       2 (16.3 %)      3 (3.7 %)
         4 (13.1 %)      5 (17.4 %)      6 (7.2 %)       7 (11.7 %)
         9 (4.3 %)      10 (2.3 %)      11 (4.3 %)      
        Total: 117.4%
Initial condition solution time: CPU = 271 us, elapsed = 277.996 us.
Intrinsic tran analysis time:    CPU = 52.058 ms, elapsed = 58.5539 ms.
Total time required for tran analysis `tran': CPU = 55.134 ms, elapsed = 65.6991 ms, util. = 83.9%.
Time accumulated: CPU = 1.21741 s, elapsed = 3.68287 s.
Peak resident memory used = 187 Mbytes.

finalTimeOP: writing operating point information to rawfile.

Opening the PSF file ../psf/mc1_separate/004/finalTimeOP.info ...
modelParameter: writing model parameter values to rawfile.

Opening the PSF file ../psf/mc1_separate/004/modelParameter.info ...
element: writing instance parameter values to rawfile.

Opening the PSF file ../psf/mc1_separate/004/element.info ...
outputParameter: writing output parameter values to rawfile.

Opening the PSF file ../psf/mc1_separate/004/outputParameter.info ...
designParamVals: writing netlist parameters to rawfile.

Opening the PSFASCII file ../psf/mc1_separate/004/designParamVals.info ...
primitives: writing primitives to rawfile.

Opening the PSFASCII file ../psf/mc1_separate/004/primitives.info.primitives ...
subckts: writing subcircuits to rawfile.

Opening the PSFASCII file ../psf/mc1_separate/004/subckts.info.subckts ...
    mc1: iteration = 4           (3.03 %), step = 1            (1.01 %)
5              4.04% 

************************************************
Transient Analysis `tran': time = (0 s -> 10 ns)
************************************************

Opening the PSF file ../psf/mc1_separate/005/tran.tran.tran ...

Warning from spectre during check, during IC analysis, during transient analysis `tran', during Monte Carlo analysis `mc1'.
    WARNING (CMI-2943): Parameter checks have been ignored because the valid value for parameter 'trise' could not be found in 'C0'.

DC simulation time: CPU = 226 us, elapsed = 226.974 us.
Important parameter values:
    start = 0 s
    outputstart = 0 s
    stop = 10 ns
    step = 10 ps
    maxstep = 100 ps
    ic = all
    useprevic = no
    skipdc = no
    reltol = 10e-06
    abstol(V) = 1 uV
    abstol(I) = 1 pA
    temp = 27 C
    tnom = 27 C
    tempeffects = all
    errpreset = conservative
    method = gear2only
    lteratio = 10
    relref = alllocal
    cmin = 0 F
    gmin = 1 pS
    rabsshort = 1 mOhm


Notice from spectre during transient analysis `tran', during Monte Carlo analysis `mc1'.
    Multithreading is disabled due to the size of the design being too small.


Output and IC/nodeset summary:
                 save   2       (current)
                 save   5       (voltage)

    tran: time = 255.9 ps    (2.56 %), step = 7.362 ps    (73.6 m%)
    tran: time = 753.9 ps    (7.54 %), step = 100 ps          (1 %)
    tran: time = 1.25 ns     (12.5 %), step = 3.375 ps    (33.7 m%)
    tran: time = 1.78 ns     (17.8 %), step = 46.12 ps     (461 m%)
    tran: time = 2.255 ns    (22.5 %), step = 7.268 ps    (72.7 m%)
    tran: time = 2.836 ns    (28.4 %), step = 100 ps          (1 %)
    tran: time = 3.25 ns     (32.5 %), step = 3.375 ps    (33.8 m%)
    tran: time = 3.78 ns     (37.8 %), step = 46.16 ps     (462 m%)
    tran: time = 4.255 ns    (42.5 %), step = 7.268 ps    (72.7 m%)
    tran: time = 4.836 ns    (48.4 %), step = 100 ps          (1 %)
    tran: time = 5.25 ns     (52.5 %), step = 3.375 ps    (33.8 m%)
    tran: time = 5.78 ns     (57.8 %), step = 46.16 ps     (462 m%)
    tran: time = 6.255 ns    (62.5 %), step = 7.268 ps    (72.7 m%)
    tran: time = 6.836 ns    (68.4 %), step = 100 ps          (1 %)
    tran: time = 7.25 ns     (72.5 %), step = 3.375 ps    (33.8 m%)
    tran: time = 7.78 ns     (77.8 %), step = 46.16 ps     (462 m%)
    tran: time = 8.255 ns    (82.5 %), step = 7.268 ps    (72.7 m%)
    tran: time = 8.836 ns    (88.4 %), step = 100 ps          (1 %)
    tran: time = 9.25 ns     (92.5 %), step = 3.375 ps    (33.8 m%)
    tran: time = 9.78 ns     (97.8 %), step = 46.16 ps     (462 m%)
Number of accepted tran steps =             870

Maximum value achieved for any signal of each quantity: 
V: V(net3) = 3.37 V
I: I(V0:p) = 416.9 uA

~~~~~~~~~~~~~~~~~~~~~~~~~~~~~~~~~
Post-Transient Simulation Summary
~~~~~~~~~~~~~~~~~~~~~~~~~~~~~~~~~
   -   To further speed up simulation, consider
          add ++aps on command line
   -   Non-default settings that could significantly slow down simulation
          errpreset = conservative, default moderate
          reltol = 10e-06, default 100e-06 (conservative)
~~~~~~~~~~~~~~~~~~~~~~~~~~~~~~~~~


During simulation, the CPU load for active processors is :
         0 (30.7 %)      1 (6.6 %)       2 (16.0 %)      3 (3.6 %)
         4 (12.9 %)      5 (17.1 %)      6 (6.9 %)       7 (11.3 %)
         9 (4.1 %)      10 (2.2 %)      11 (4.4 %)      
        Total: 116.8%
Initial condition solution time: CPU = 272 us, elapsed = 277.996 us.
Intrinsic tran analysis time:    CPU = 53.343 ms, elapsed = 58.4729 ms.
Total time required for tran analysis `tran': CPU = 56.455 ms, elapsed = 65.2888 ms, util. = 86.5%.
Time accumulated: CPU = 1.3023 s, elapsed = 3.81249 s.
Peak resident memory used = 187 Mbytes.

finalTimeOP: writing operating point information to rawfile.

Opening the PSF file ../psf/mc1_separate/005/finalTimeOP.info ...
modelParameter: writing model parameter values to rawfile.

Opening the PSF file ../psf/mc1_separate/005/modelParameter.info ...
element: writing instance parameter values to rawfile.

Opening the PSF file ../psf/mc1_separate/005/element.info ...
outputParameter: writing output parameter values to rawfile.

Opening the PSF file ../psf/mc1_separate/005/outputParameter.info ...
designParamVals: writing netlist parameters to rawfile.

Opening the PSFASCII file ../psf/mc1_separate/005/designParamVals.info ...
primitives: writing primitives to rawfile.

Opening the PSFASCII file ../psf/mc1_separate/005/primitives.info.primitives ...
subckts: writing subcircuits to rawfile.

Opening the PSFASCII file ../psf/mc1_separate/005/subckts.info.subckts ...
    mc1: iteration = 5           (4.04 %), step = 1            (1.01 %)
6              5.05% 

************************************************
Transient Analysis `tran': time = (0 s -> 10 ns)
************************************************

Opening the PSF file ../psf/mc1_separate/006/tran.tran.tran ...

Warning from spectre during check, during IC analysis, during transient analysis `tran', during Monte Carlo analysis `mc1'.
    WARNING (CMI-2943): Parameter checks have been ignored because the valid value for parameter 'trise' could not be found in 'C0'.

DC simulation time: CPU = 250 us, elapsed = 264.168 us.
Important parameter values:
    start = 0 s
    outputstart = 0 s
    stop = 10 ns
    step = 10 ps
    maxstep = 100 ps
    ic = all
    useprevic = no
    skipdc = no
    reltol = 10e-06
    abstol(V) = 1 uV
    abstol(I) = 1 pA
    temp = 27 C
    tnom = 27 C
    tempeffects = all
    errpreset = conservative
    method = gear2only
    lteratio = 10
    relref = alllocal
    cmin = 0 F
    gmin = 1 pS
    rabsshort = 1 mOhm


Notice from spectre during transient analysis `tran', during Monte Carlo analysis `mc1'.
    Multithreading is disabled due to the size of the design being too small.


Output and IC/nodeset summary:
                 save   2       (current)
                 save   5       (voltage)

    tran: time = 255.9 ps    (2.56 %), step = 7.362 ps    (73.6 m%)
    tran: time = 753.9 ps    (7.54 %), step = 100 ps          (1 %)
    tran: time = 1.25 ns     (12.5 %), step = 3.375 ps    (33.7 m%)
    tran: time = 1.78 ns     (17.8 %), step = 46.12 ps     (461 m%)
    tran: time = 2.255 ns    (22.5 %), step = 7.268 ps    (72.7 m%)
    tran: time = 2.836 ns    (28.4 %), step = 100 ps          (1 %)
    tran: time = 3.25 ns     (32.5 %), step = 3.375 ps    (33.8 m%)
    tran: time = 3.78 ns     (37.8 %), step = 46.16 ps     (462 m%)
    tran: time = 4.255 ns    (42.5 %), step = 7.268 ps    (72.7 m%)
    tran: time = 4.836 ns    (48.4 %), step = 100 ps          (1 %)
    tran: time = 5.25 ns     (52.5 %), step = 3.375 ps    (33.8 m%)
    tran: time = 5.78 ns     (57.8 %), step = 46.16 ps     (462 m%)
    tran: time = 6.255 ns    (62.5 %), step = 7.268 ps    (72.7 m%)
    tran: time = 6.836 ns    (68.4 %), step = 100 ps          (1 %)
    tran: time = 7.25 ns     (72.5 %), step = 3.375 ps    (33.8 m%)
    tran: time = 7.78 ns     (77.8 %), step = 46.16 ps     (462 m%)
    tran: time = 8.255 ns    (82.5 %), step = 7.268 ps    (72.7 m%)
    tran: time = 8.836 ns    (88.4 %), step = 100 ps          (1 %)
    tran: time = 9.25 ns     (92.5 %), step = 3.375 ps    (33.8 m%)
    tran: time = 9.78 ns     (97.8 %), step = 46.16 ps     (462 m%)
Number of accepted tran steps =             870

Maximum value achieved for any signal of each quantity: 
V: V(net3) = 3.37 V
I: I(V0:p) = 416.9 uA

~~~~~~~~~~~~~~~~~~~~~~~~~~~~~~~~~
Post-Transient Simulation Summary
~~~~~~~~~~~~~~~~~~~~~~~~~~~~~~~~~
   -   To further speed up simulation, consider
          add ++aps on command line
   -   Non-default settings that could significantly slow down simulation
          errpreset = conservative, default moderate
          reltol = 10e-06, default 100e-06 (conservative)
~~~~~~~~~~~~~~~~~~~~~~~~~~~~~~~~~


During simulation, the CPU load for active processors is :
         0 (31.0 %)      1 (7.4 %)       2 (16.8 %)      3 (3.5 %)
         4 (16.0 %)      5 (16.8 %)      6 (7.0 %)       7 (11.5 %)
         8 (1.3 %)       9 (5.6 %)      10 (2.1 %)      11 (5.9 %)
        Total: 124.8%
Initial condition solution time: CPU = 296 us, elapsed = 318.05 us.
Intrinsic tran analysis time:    CPU = 50.767 ms, elapsed = 55.8369 ms.
Total time required for tran analysis `tran': CPU = 53.986 ms, elapsed = 62.18 ms, util. = 86.8%.
Time accumulated: CPU = 1.38548 s, elapsed = 3.93626 s.
Peak resident memory used = 187 Mbytes.

finalTimeOP: writing operating point information to rawfile.

Opening the PSF file ../psf/mc1_separate/006/finalTimeOP.info ...
modelParameter: writing model parameter values to rawfile.

Opening the PSF file ../psf/mc1_separate/006/modelParameter.info ...
element: writing instance parameter values to rawfile.

Opening the PSF file ../psf/mc1_separate/006/element.info ...
outputParameter: writing output parameter values to rawfile.

Opening the PSF file ../psf/mc1_separate/006/outputParameter.info ...
designParamVals: writing netlist parameters to rawfile.

Opening the PSFASCII file ../psf/mc1_separate/006/designParamVals.info ...
primitives: writing primitives to rawfile.

Opening the PSFASCII file ../psf/mc1_separate/006/primitives.info.primitives ...
subckts: writing subcircuits to rawfile.

Opening the PSFASCII file ../psf/mc1_separate/006/subckts.info.subckts ...
    mc1: iteration = 6           (5.05 %), step = 1            (1.01 %)
7              6.06% 

************************************************
Transient Analysis `tran': time = (0 s -> 10 ns)
************************************************

Opening the PSF file ../psf/mc1_separate/007/tran.tran.tran ...

Warning from spectre during check, during IC analysis, during transient analysis `tran', during Monte Carlo analysis `mc1'.
    WARNING (CMI-2943): Parameter checks have been ignored because the valid value for parameter 'trise' could not be found in 'C0'.

DC simulation time: CPU = 268 us, elapsed = 269.89 us.
Important parameter values:
    start = 0 s
    outputstart = 0 s
    stop = 10 ns
    step = 10 ps
    maxstep = 100 ps
    ic = all
    useprevic = no
    skipdc = no
    reltol = 10e-06
    abstol(V) = 1 uV
    abstol(I) = 1 pA
    temp = 27 C
    tnom = 27 C
    tempeffects = all
    errpreset = conservative
    method = gear2only
    lteratio = 10
    relref = alllocal
    cmin = 0 F
    gmin = 1 pS
    rabsshort = 1 mOhm


Notice from spectre during transient analysis `tran', during Monte Carlo analysis `mc1'.
    Multithreading is disabled due to the size of the design being too small.


Output and IC/nodeset summary:
                 save   2       (current)
                 save   5       (voltage)

    tran: time = 255.9 ps    (2.56 %), step = 7.362 ps    (73.6 m%)
    tran: time = 753.9 ps    (7.54 %), step = 100 ps          (1 %)
    tran: time = 1.25 ns     (12.5 %), step = 3.375 ps    (33.7 m%)
    tran: time = 1.78 ns     (17.8 %), step = 46.12 ps     (461 m%)
    tran: time = 2.255 ns    (22.5 %), step = 7.268 ps    (72.7 m%)
    tran: time = 2.836 ns    (28.4 %), step = 100 ps          (1 %)
    tran: time = 3.25 ns     (32.5 %), step = 3.375 ps    (33.8 m%)
    tran: time = 3.78 ns     (37.8 %), step = 46.16 ps     (462 m%)
    tran: time = 4.255 ns    (42.5 %), step = 7.268 ps    (72.7 m%)
    tran: time = 4.836 ns    (48.4 %), step = 100 ps          (1 %)
    tran: time = 5.25 ns     (52.5 %), step = 3.375 ps    (33.8 m%)
    tran: time = 5.78 ns     (57.8 %), step = 46.16 ps     (462 m%)
    tran: time = 6.255 ns    (62.5 %), step = 7.268 ps    (72.7 m%)
    tran: time = 6.836 ns    (68.4 %), step = 100 ps          (1 %)
    tran: time = 7.25 ns     (72.5 %), step = 3.375 ps    (33.8 m%)
    tran: time = 7.78 ns     (77.8 %), step = 46.16 ps     (462 m%)
    tran: time = 8.255 ns    (82.5 %), step = 7.268 ps    (72.7 m%)
    tran: time = 8.836 ns    (88.4 %), step = 100 ps          (1 %)
    tran: time = 9.25 ns     (92.5 %), step = 3.375 ps    (33.8 m%)
    tran: time = 9.78 ns     (97.8 %), step = 46.16 ps     (462 m%)
Number of accepted tran steps =             870

Maximum value achieved for any signal of each quantity: 
V: V(net3) = 3.37 V
I: I(V0:p) = 416.9 uA

~~~~~~~~~~~~~~~~~~~~~~~~~~~~~~~~~
Post-Transient Simulation Summary
~~~~~~~~~~~~~~~~~~~~~~~~~~~~~~~~~
   -   To further speed up simulation, consider
          add ++aps on command line
   -   Non-default settings that could significantly slow down simulation
          errpreset = conservative, default moderate
          reltol = 10e-06, default 100e-06 (conservative)
~~~~~~~~~~~~~~~~~~~~~~~~~~~~~~~~~


During simulation, the CPU load for active processors is :
         0 (30.8 %)      1 (8.5 %)       2 (18.2 %)      3 (3.3 %)
         4 (16.2 %)      5 (17.0 %)      6 (8.0 %)       7 (11.6 %)
         8 (2.1 %)       9 (5.7 %)      10 (2.1 %)      11 (7.7 %)
        Total: 131.2%
Initial condition solution time: CPU = 315 us, elapsed = 323.057 us.
Intrinsic tran analysis time:    CPU = 51.332 ms, elapsed = 56.4401 ms.
Total time required for tran analysis `tran': CPU = 54.847 ms, elapsed = 63.123 ms, util. = 86.9%.
Time accumulated: CPU = 1.47553 s, elapsed = 4.06823 s.
Peak resident memory used = 187 Mbytes.

finalTimeOP: writing operating point information to rawfile.

Opening the PSF file ../psf/mc1_separate/007/finalTimeOP.info ...
modelParameter: writing model parameter values to rawfile.

Opening the PSF file ../psf/mc1_separate/007/modelParameter.info ...
element: writing instance parameter values to rawfile.

Opening the PSF file ../psf/mc1_separate/007/element.info ...
outputParameter: writing output parameter values to rawfile.

Opening the PSF file ../psf/mc1_separate/007/outputParameter.info ...
designParamVals: writing netlist parameters to rawfile.

Opening the PSFASCII file ../psf/mc1_separate/007/designParamVals.info ...
primitives: writing primitives to rawfile.

Opening the PSFASCII file ../psf/mc1_separate/007/primitives.info.primitives ...
subckts: writing subcircuits to rawfile.

Opening the PSFASCII file ../psf/mc1_separate/007/subckts.info.subckts ...
    mc1: iteration = 7           (6.06 %), step = 1            (1.01 %)
8              7.07% 

************************************************
Transient Analysis `tran': time = (0 s -> 10 ns)
************************************************

Opening the PSF file ../psf/mc1_separate/008/tran.tran.tran ...

Warning from spectre during check, during IC analysis, during transient analysis `tran', during Monte Carlo analysis `mc1'.
    WARNING (CMI-2943): Parameter checks have been ignored because the valid value for parameter 'trise' could not be found in 'C0'.

DC simulation time: CPU = 235 us, elapsed = 236.034 us.
Important parameter values:
    start = 0 s
    outputstart = 0 s
    stop = 10 ns
    step = 10 ps
    maxstep = 100 ps
    ic = all
    useprevic = no
    skipdc = no
    reltol = 10e-06
    abstol(V) = 1 uV
    abstol(I) = 1 pA
    temp = 27 C
    tnom = 27 C
    tempeffects = all
    errpreset = conservative
    method = gear2only
    lteratio = 10
    relref = alllocal
    cmin = 0 F
    gmin = 1 pS
    rabsshort = 1 mOhm


Notice from spectre during transient analysis `tran', during Monte Carlo analysis `mc1'.
    Multithreading is disabled due to the size of the design being too small.


Output and IC/nodeset summary:
                 save   2       (current)
                 save   5       (voltage)

    tran: time = 255.9 ps    (2.56 %), step = 7.362 ps    (73.6 m%)
    tran: time = 753.9 ps    (7.54 %), step = 100 ps          (1 %)
    tran: time = 1.25 ns     (12.5 %), step = 3.375 ps    (33.7 m%)
    tran: time = 1.78 ns     (17.8 %), step = 46.12 ps     (461 m%)
    tran: time = 2.255 ns    (22.5 %), step = 7.268 ps    (72.7 m%)
    tran: time = 2.836 ns    (28.4 %), step = 100 ps          (1 %)
    tran: time = 3.25 ns     (32.5 %), step = 3.375 ps    (33.8 m%)
    tran: time = 3.78 ns     (37.8 %), step = 46.16 ps     (462 m%)
    tran: time = 4.255 ns    (42.5 %), step = 7.268 ps    (72.7 m%)
    tran: time = 4.836 ns    (48.4 %), step = 100 ps          (1 %)
    tran: time = 5.25 ns     (52.5 %), step = 3.375 ps    (33.8 m%)
    tran: time = 5.78 ns     (57.8 %), step = 46.16 ps     (462 m%)
    tran: time = 6.255 ns    (62.5 %), step = 7.268 ps    (72.7 m%)
    tran: time = 6.836 ns    (68.4 %), step = 100 ps          (1 %)
    tran: time = 7.25 ns     (72.5 %), step = 3.375 ps    (33.8 m%)
    tran: time = 7.78 ns     (77.8 %), step = 46.16 ps     (462 m%)
    tran: time = 8.255 ns    (82.5 %), step = 7.268 ps    (72.7 m%)
    tran: time = 8.836 ns    (88.4 %), step = 100 ps          (1 %)
    tran: time = 9.25 ns     (92.5 %), step = 3.375 ps    (33.8 m%)
    tran: time = 9.78 ns     (97.8 %), step = 46.16 ps     (462 m%)
Number of accepted tran steps =             870

Maximum value achieved for any signal of each quantity: 
V: V(net3) = 3.37 V
I: I(V0:p) = 416.9 uA

~~~~~~~~~~~~~~~~~~~~~~~~~~~~~~~~~
Post-Transient Simulation Summary
~~~~~~~~~~~~~~~~~~~~~~~~~~~~~~~~~
   -   To further speed up simulation, consider
          add ++aps on command line
   -   Non-default settings that could significantly slow down simulation
          errpreset = conservative, default moderate
          reltol = 10e-06, default 100e-06 (conservative)
~~~~~~~~~~~~~~~~~~~~~~~~~~~~~~~~~


During simulation, the CPU load for active processors is :
         0 (30.1 %)      1 (9.0 %)       2 (17.9 %)      3 (3.5 %)
         4 (15.8 %)      5 (17.2 %)      6 (7.8 %)       7 (12.8 %)
         8 (4.3 %)       9 (5.8 %)      10 (2.0 %)      11 (8.2 %)
        Total: 134.1%
Initial condition solution time: CPU = 281 us, elapsed = 288.963 us.
Intrinsic tran analysis time:    CPU = 50.179 ms, elapsed = 55.1748 ms.
Total time required for tran analysis `tran': CPU = 53.634 ms, elapsed = 61.3539 ms, util. = 87.4%.
Time accumulated: CPU = 1.55816 s, elapsed = 4.19136 s.
Peak resident memory used = 187 Mbytes.

finalTimeOP: writing operating point information to rawfile.

Opening the PSF file ../psf/mc1_separate/008/finalTimeOP.info ...
modelParameter: writing model parameter values to rawfile.

Opening the PSF file ../psf/mc1_separate/008/modelParameter.info ...
element: writing instance parameter values to rawfile.

Opening the PSF file ../psf/mc1_separate/008/element.info ...
outputParameter: writing output parameter values to rawfile.

Opening the PSF file ../psf/mc1_separate/008/outputParameter.info ...
designParamVals: writing netlist parameters to rawfile.

Opening the PSFASCII file ../psf/mc1_separate/008/designParamVals.info ...
primitives: writing primitives to rawfile.

Opening the PSFASCII file ../psf/mc1_separate/008/primitives.info.primitives ...
subckts: writing subcircuits to rawfile.

Opening the PSFASCII file ../psf/mc1_separate/008/subckts.info.subckts ...
    mc1: iteration = 8           (7.07 %), step = 1            (1.01 %)
9              8.08% 

************************************************
Transient Analysis `tran': time = (0 s -> 10 ns)
************************************************

Opening the PSF file ../psf/mc1_separate/009/tran.tran.tran ...

Warning from spectre during check, during IC analysis, during transient analysis `tran', during Monte Carlo analysis `mc1'.
    WARNING (CMI-2943): Parameter checks have been ignored because the valid value for parameter 'trise' could not be found in 'C0'.

DC simulation time: CPU = 397 us, elapsed = 411.034 us.
Important parameter values:
    start = 0 s
    outputstart = 0 s
    stop = 10 ns
    step = 10 ps
    maxstep = 100 ps
    ic = all
    useprevic = no
    skipdc = no
    reltol = 10e-06
    abstol(V) = 1 uV
    abstol(I) = 1 pA
    temp = 27 C
    tnom = 27 C
    tempeffects = all
    errpreset = conservative
    method = gear2only
    lteratio = 10
    relref = alllocal
    cmin = 0 F
    gmin = 1 pS
    rabsshort = 1 mOhm


Notice from spectre during transient analysis `tran', during Monte Carlo analysis `mc1'.
    Multithreading is disabled due to the size of the design being too small.


Output and IC/nodeset summary:
                 save   2       (current)
                 save   5       (voltage)

    tran: time = 255.9 ps    (2.56 %), step = 7.362 ps    (73.6 m%)
    tran: time = 753.9 ps    (7.54 %), step = 100 ps          (1 %)
    tran: time = 1.25 ns     (12.5 %), step = 3.375 ps    (33.7 m%)
    tran: time = 1.78 ns     (17.8 %), step = 46.12 ps     (461 m%)
    tran: time = 2.255 ns    (22.5 %), step = 7.268 ps    (72.7 m%)
    tran: time = 2.836 ns    (28.4 %), step = 100 ps          (1 %)
    tran: time = 3.25 ns     (32.5 %), step = 3.375 ps    (33.8 m%)
    tran: time = 3.78 ns     (37.8 %), step = 46.16 ps     (462 m%)
    tran: time = 4.255 ns    (42.5 %), step = 7.268 ps    (72.7 m%)
    tran: time = 4.836 ns    (48.4 %), step = 100 ps          (1 %)
    tran: time = 5.25 ns     (52.5 %), step = 3.375 ps    (33.8 m%)
    tran: time = 5.78 ns     (57.8 %), step = 46.16 ps     (462 m%)
    tran: time = 6.255 ns    (62.5 %), step = 7.268 ps    (72.7 m%)
    tran: time = 6.836 ns    (68.4 %), step = 100 ps          (1 %)
    tran: time = 7.25 ns     (72.5 %), step = 3.375 ps    (33.8 m%)
    tran: time = 7.78 ns     (77.8 %), step = 46.16 ps     (462 m%)
    tran: time = 8.255 ns    (82.5 %), step = 7.268 ps    (72.7 m%)
    tran: time = 8.836 ns    (88.4 %), step = 100 ps          (1 %)
    tran: time = 9.25 ns     (92.5 %), step = 3.375 ps    (33.8 m%)
    tran: time = 9.78 ns     (97.8 %), step = 46.16 ps     (462 m%)
Number of accepted tran steps =             870

Maximum value achieved for any signal of each quantity: 
V: V(net3) = 3.37 V
I: I(V0:p) = 416.9 uA

~~~~~~~~~~~~~~~~~~~~~~~~~~~~~~~~~
Post-Transient Simulation Summary
~~~~~~~~~~~~~~~~~~~~~~~~~~~~~~~~~
   -   To further speed up simulation, consider
          add ++aps on command line
   -   Non-default settings that could significantly slow down simulation
          errpreset = conservative, default moderate
          reltol = 10e-06, default 100e-06 (conservative)
~~~~~~~~~~~~~~~~~~~~~~~~~~~~~~~~~


During simulation, the CPU load for active processors is :
         0 (29.1 %)      1 (9.9 %)       2 (18.0 %)      3 (4.1 %)
         4 (15.2 %)      5 (17.1 %)      6 (7.8 %)       7 (12.3 %)
         8 (6.3 %)       9 (5.8 %)      10 (1.9 %)      11 (8.0 %)
        Total: 135.6%
Initial condition solution time: CPU = 467 us, elapsed = 491.142 us.
Intrinsic tran analysis time:    CPU = 58.986 ms, elapsed = 64.0121 ms.
Total time required for tran analysis `tran': CPU = 63.54 ms, elapsed = 71.209 ms, util. = 89.2%.
Time accumulated: CPU = 1.65031 s, elapsed = 4.32567 s.
Peak resident memory used = 187 Mbytes.

finalTimeOP: writing operating point information to rawfile.

Opening the PSF file ../psf/mc1_separate/009/finalTimeOP.info ...
modelParameter: writing model parameter values to rawfile.

Opening the PSF file ../psf/mc1_separate/009/modelParameter.info ...
element: writing instance parameter values to rawfile.

Opening the PSF file ../psf/mc1_separate/009/element.info ...
outputParameter: writing output parameter values to rawfile.

Opening the PSF file ../psf/mc1_separate/009/outputParameter.info ...
designParamVals: writing netlist parameters to rawfile.

Opening the PSFASCII file ../psf/mc1_separate/009/designParamVals.info ...
primitives: writing primitives to rawfile.

Opening the PSFASCII file ../psf/mc1_separate/009/primitives.info.primitives ...
subckts: writing subcircuits to rawfile.

Opening the PSFASCII file ../psf/mc1_separate/009/subckts.info.subckts ...
    mc1: iteration = 9           (8.08 %), step = 1            (1.01 %)
10             9.09% 

************************************************
Transient Analysis `tran': time = (0 s -> 10 ns)
************************************************

Opening the PSF file ../psf/mc1_separate/010/tran.tran.tran ...

Warning from spectre during check, during IC analysis, during transient analysis `tran', during Monte Carlo analysis `mc1'.
    WARNING (CMI-2943): Parameter checks have been ignored because the valid value for parameter 'trise' could not be found in 'C0'.

DC simulation time: CPU = 390 us, elapsed = 391.006 us.
Important parameter values:
    start = 0 s
    outputstart = 0 s
    stop = 10 ns
    step = 10 ps
    maxstep = 100 ps
    ic = all
    useprevic = no
    skipdc = no
    reltol = 10e-06
    abstol(V) = 1 uV
    abstol(I) = 1 pA
    temp = 27 C
    tnom = 27 C
    tempeffects = all
    errpreset = conservative
    method = gear2only
    lteratio = 10
    relref = alllocal
    cmin = 0 F
    gmin = 1 pS
    rabsshort = 1 mOhm


Notice from spectre during transient analysis `tran', during Monte Carlo analysis `mc1'.
    Multithreading is disabled due to the size of the design being too small.


Output and IC/nodeset summary:
                 save   2       (current)
                 save   5       (voltage)

    tran: time = 255.9 ps    (2.56 %), step = 7.362 ps    (73.6 m%)
    tran: time = 753.9 ps    (7.54 %), step = 100 ps          (1 %)
    tran: time = 1.25 ns     (12.5 %), step = 3.375 ps    (33.7 m%)
    tran: time = 1.78 ns     (17.8 %), step = 46.12 ps     (461 m%)
    tran: time = 2.255 ns    (22.5 %), step = 7.268 ps    (72.7 m%)
    tran: time = 2.836 ns    (28.4 %), step = 100 ps          (1 %)
    tran: time = 3.25 ns     (32.5 %), step = 3.375 ps    (33.8 m%)
    tran: time = 3.78 ns     (37.8 %), step = 46.16 ps     (462 m%)
    tran: time = 4.255 ns    (42.5 %), step = 7.268 ps    (72.7 m%)
    tran: time = 4.836 ns    (48.4 %), step = 100 ps          (1 %)
    tran: time = 5.25 ns     (52.5 %), step = 3.375 ps    (33.8 m%)
    tran: time = 5.78 ns     (57.8 %), step = 46.16 ps     (462 m%)
    tran: time = 6.255 ns    (62.5 %), step = 7.268 ps    (72.7 m%)
    tran: time = 6.836 ns    (68.4 %), step = 100 ps          (1 %)
    tran: time = 7.25 ns     (72.5 %), step = 3.375 ps    (33.8 m%)
    tran: time = 7.78 ns     (77.8 %), step = 46.16 ps     (462 m%)
    tran: time = 8.255 ns    (82.5 %), step = 7.268 ps    (72.7 m%)
    tran: time = 8.836 ns    (88.4 %), step = 100 ps          (1 %)
    tran: time = 9.25 ns     (92.5 %), step = 3.375 ps    (33.8 m%)
    tran: time = 9.78 ns     (97.8 %), step = 46.16 ps     (462 m%)
Number of accepted tran steps =             870

Maximum value achieved for any signal of each quantity: 
V: V(net3) = 3.37 V
I: I(V0:p) = 416.9 uA

~~~~~~~~~~~~~~~~~~~~~~~~~~~~~~~~~
Post-Transient Simulation Summary
~~~~~~~~~~~~~~~~~~~~~~~~~~~~~~~~~
   -   To further speed up simulation, consider
          add ++aps on command line
   -   Non-default settings that could significantly slow down simulation
          errpreset = conservative, default moderate
          reltol = 10e-06, default 100e-06 (conservative)
~~~~~~~~~~~~~~~~~~~~~~~~~~~~~~~~~


During simulation, the CPU load for active processors is :
         0 (29.2 %)      1 (9.5 %)       2 (18.6 %)      3 (4.9 %)
         4 (14.7 %)      5 (16.8 %)      6 (7.5 %)       7 (11.9 %)
         8 (8.7 %)       9 (5.6 %)      10 (2.1 %)      11 (8.0 %)
        Total: 137.6%
Initial condition solution time: CPU = 462 us, elapsed = 551.939 us.
Intrinsic tran analysis time:    CPU = 58.362 ms, elapsed = 63.777 ms.
Total time required for tran analysis `tran': CPU = 62.434 ms, elapsed = 70.6899 ms, util. = 88.3%.
Time accumulated: CPU = 1.74876 s, elapsed = 4.46523 s.
Peak resident memory used = 187 Mbytes.

finalTimeOP: writing operating point information to rawfile.

Opening the PSF file ../psf/mc1_separate/010/finalTimeOP.info ...
modelParameter: writing model parameter values to rawfile.

Opening the PSF file ../psf/mc1_separate/010/modelParameter.info ...
element: writing instance parameter values to rawfile.

Opening the PSF file ../psf/mc1_separate/010/element.info ...
outputParameter: writing output parameter values to rawfile.

Opening the PSF file ../psf/mc1_separate/010/outputParameter.info ...
designParamVals: writing netlist parameters to rawfile.

Opening the PSFASCII file ../psf/mc1_separate/010/designParamVals.info ...
primitives: writing primitives to rawfile.

Opening the PSFASCII file ../psf/mc1_separate/010/primitives.info.primitives ...
subckts: writing subcircuits to rawfile.

Opening the PSFASCII file ../psf/mc1_separate/010/subckts.info.subckts ...
    mc1: iteration = 10          (9.09 %), step = 1            (1.01 %)
11            10.10% 

************************************************
Transient Analysis `tran': time = (0 s -> 10 ns)
************************************************

Opening the PSF file ../psf/mc1_separate/011/tran.tran.tran ...

Warning from spectre during check, during IC analysis, during transient analysis `tran', during Monte Carlo analysis `mc1'.
    WARNING (CMI-2943): Parameter checks have been ignored because the valid value for parameter 'trise' could not be found in 'C0'.

DC simulation time: CPU = 230 us, elapsed = 231.028 us.
Important parameter values:
    start = 0 s
    outputstart = 0 s
    stop = 10 ns
    step = 10 ps
    maxstep = 100 ps
    ic = all
    useprevic = no
    skipdc = no
    reltol = 10e-06
    abstol(V) = 1 uV
    abstol(I) = 1 pA
    temp = 27 C
    tnom = 27 C
    tempeffects = all
    errpreset = conservative
    method = gear2only
    lteratio = 10
    relref = alllocal
    cmin = 0 F
    gmin = 1 pS
    rabsshort = 1 mOhm


Notice from spectre during transient analysis `tran', during Monte Carlo analysis `mc1'.
    Multithreading is disabled due to the size of the design being too small.


Output and IC/nodeset summary:
                 save   2       (current)
                 save   5       (voltage)

    tran: time = 255.9 ps    (2.56 %), step = 7.362 ps    (73.6 m%)
    tran: time = 753.9 ps    (7.54 %), step = 100 ps          (1 %)
    tran: time = 1.25 ns     (12.5 %), step = 3.375 ps    (33.7 m%)
    tran: time = 1.78 ns     (17.8 %), step = 46.12 ps     (461 m%)
    tran: time = 2.255 ns    (22.5 %), step = 7.268 ps    (72.7 m%)
    tran: time = 2.836 ns    (28.4 %), step = 100 ps          (1 %)
    tran: time = 3.25 ns     (32.5 %), step = 3.375 ps    (33.8 m%)
    tran: time = 3.78 ns     (37.8 %), step = 46.16 ps     (462 m%)
    tran: time = 4.255 ns    (42.5 %), step = 7.268 ps    (72.7 m%)
    tran: time = 4.836 ns    (48.4 %), step = 100 ps          (1 %)
    tran: time = 5.25 ns     (52.5 %), step = 3.375 ps    (33.8 m%)
    tran: time = 5.78 ns     (57.8 %), step = 46.16 ps     (462 m%)
    tran: time = 6.255 ns    (62.5 %), step = 7.268 ps    (72.7 m%)
    tran: time = 6.836 ns    (68.4 %), step = 100 ps          (1 %)
    tran: time = 7.25 ns     (72.5 %), step = 3.375 ps    (33.8 m%)
    tran: time = 7.78 ns     (77.8 %), step = 46.16 ps     (462 m%)
    tran: time = 8.255 ns    (82.5 %), step = 7.268 ps    (72.7 m%)
    tran: time = 8.836 ns    (88.4 %), step = 100 ps          (1 %)
    tran: time = 9.25 ns     (92.5 %), step = 3.375 ps    (33.8 m%)
    tran: time = 9.78 ns     (97.8 %), step = 46.16 ps     (462 m%)
Number of accepted tran steps =             870

Maximum value achieved for any signal of each quantity: 
V: V(net3) = 3.37 V
I: I(V0:p) = 416.9 uA

~~~~~~~~~~~~~~~~~~~~~~~~~~~~~~~~~
Post-Transient Simulation Summary
~~~~~~~~~~~~~~~~~~~~~~~~~~~~~~~~~
   -   To further speed up simulation, consider
          add ++aps on command line
   -   Non-default settings that could significantly slow down simulation
          errpreset = conservative, default moderate
          reltol = 10e-06, default 100e-06 (conservative)
~~~~~~~~~~~~~~~~~~~~~~~~~~~~~~~~~


During simulation, the CPU load for active processors is :
         0 (29.7 %)      1 (9.5 %)       2 (18.1 %)      3 (6.1 %)
         4 (14.3 %)      5 (16.8 %)      6 (7.6 %)       7 (12.8 %)
         8 (8.9 %)       9 (5.7 %)      10 (2.1 %)      11 (8.0 %)
        Total: 139.5%
Initial condition solution time: CPU = 276 us, elapsed = 283.957 us.
Intrinsic tran analysis time:    CPU = 52.908 ms, elapsed = 57.9622 ms.
Total time required for tran analysis `tran': CPU = 55.877 ms, elapsed = 63.6861 ms, util. = 87.7%.
Time accumulated: CPU = 1.83247 s, elapsed = 4.59008 s.
Peak resident memory used = 187 Mbytes.

finalTimeOP: writing operating point information to rawfile.

Opening the PSF file ../psf/mc1_separate/011/finalTimeOP.info ...
modelParameter: writing model parameter values to rawfile.

Opening the PSF file ../psf/mc1_separate/011/modelParameter.info ...
element: writing instance parameter values to rawfile.

Opening the PSF file ../psf/mc1_separate/011/element.info ...
outputParameter: writing output parameter values to rawfile.

Opening the PSF file ../psf/mc1_separate/011/outputParameter.info ...
designParamVals: writing netlist parameters to rawfile.

Opening the PSFASCII file ../psf/mc1_separate/011/designParamVals.info ...
primitives: writing primitives to rawfile.

Opening the PSFASCII file ../psf/mc1_separate/011/primitives.info.primitives ...
subckts: writing subcircuits to rawfile.

Opening the PSFASCII file ../psf/mc1_separate/011/subckts.info.subckts ...
    mc1: iteration = 11          (10.1 %), step = 1            (1.01 %)
12            11.11% 

************************************************
Transient Analysis `tran': time = (0 s -> 10 ns)
************************************************

Opening the PSF file ../psf/mc1_separate/012/tran.tran.tran ...

Warning from spectre during check, during IC analysis, during transient analysis `tran', during Monte Carlo analysis `mc1'.
    WARNING (CMI-2943): Parameter checks have been ignored because the valid value for parameter 'trise' could not be found in 'C0'.

DC simulation time: CPU = 231 us, elapsed = 231.028 us.
Important parameter values:
    start = 0 s
    outputstart = 0 s
    stop = 10 ns
    step = 10 ps
    maxstep = 100 ps
    ic = all
    useprevic = no
    skipdc = no
    reltol = 10e-06
    abstol(V) = 1 uV
    abstol(I) = 1 pA
    temp = 27 C
    tnom = 27 C
    tempeffects = all
    errpreset = conservative
    method = gear2only
    lteratio = 10
    relref = alllocal
    cmin = 0 F
    gmin = 1 pS
    rabsshort = 1 mOhm


Notice from spectre during transient analysis `tran', during Monte Carlo analysis `mc1'.
    Multithreading is disabled due to the size of the design being too small.


Output and IC/nodeset summary:
                 save   2       (current)
                 save   5       (voltage)

    tran: time = 255.9 ps    (2.56 %), step = 7.362 ps    (73.6 m%)
    tran: time = 753.9 ps    (7.54 %), step = 100 ps          (1 %)
    tran: time = 1.25 ns     (12.5 %), step = 3.375 ps    (33.7 m%)
    tran: time = 1.78 ns     (17.8 %), step = 46.12 ps     (461 m%)
    tran: time = 2.255 ns    (22.5 %), step = 7.268 ps    (72.7 m%)
    tran: time = 2.836 ns    (28.4 %), step = 100 ps          (1 %)
    tran: time = 3.25 ns     (32.5 %), step = 3.375 ps    (33.8 m%)
    tran: time = 3.78 ns     (37.8 %), step = 46.16 ps     (462 m%)
    tran: time = 4.255 ns    (42.5 %), step = 7.268 ps    (72.7 m%)
    tran: time = 4.836 ns    (48.4 %), step = 100 ps          (1 %)
    tran: time = 5.25 ns     (52.5 %), step = 3.375 ps    (33.8 m%)
    tran: time = 5.78 ns     (57.8 %), step = 46.16 ps     (462 m%)
    tran: time = 6.255 ns    (62.5 %), step = 7.268 ps    (72.7 m%)
    tran: time = 6.836 ns    (68.4 %), step = 100 ps          (1 %)
    tran: time = 7.25 ns     (72.5 %), step = 3.375 ps    (33.8 m%)
    tran: time = 7.78 ns     (77.8 %), step = 46.16 ps     (462 m%)
    tran: time = 8.255 ns    (82.5 %), step = 7.268 ps    (72.7 m%)
    tran: time = 8.836 ns    (88.4 %), step = 100 ps          (1 %)
    tran: time = 9.25 ns     (92.5 %), step = 3.375 ps    (33.8 m%)
    tran: time = 9.78 ns     (97.8 %), step = 46.16 ps     (462 m%)
Number of accepted tran steps =             870

Maximum value achieved for any signal of each quantity: 
V: V(net3) = 3.37 V
I: I(V0:p) = 416.9 uA

~~~~~~~~~~~~~~~~~~~~~~~~~~~~~~~~~
Post-Transient Simulation Summary
~~~~~~~~~~~~~~~~~~~~~~~~~~~~~~~~~
   -   To further speed up simulation, consider
          add ++aps on command line
   -   Non-default settings that could significantly slow down simulation
          errpreset = conservative, default moderate
          reltol = 10e-06, default 100e-06 (conservative)
~~~~~~~~~~~~~~~~~~~~~~~~~~~~~~~~~


During simulation, the CPU load for active processors is :
         0 (29.0 %)      1 (9.7 %)       2 (17.6 %)      3 (8.2 %)
         4 (13.9 %)      5 (16.8 %)      6 (7.3 %)       7 (12.4 %)
         8 (10.4 %)      9 (5.5 %)      10 (2.0 %)      11 (7.8 %)
        Total: 140.7%
Initial condition solution time: CPU = 275 us, elapsed = 281.811 us.
Intrinsic tran analysis time:    CPU = 50.377 ms, elapsed = 55.4039 ms.
Total time required for tran analysis `tran': CPU = 53.325 ms, elapsed = 61.1911 ms, util. = 87.1%.
Time accumulated: CPU = 1.91308 s, elapsed = 4.71094 s.
Peak resident memory used = 187 Mbytes.

finalTimeOP: writing operating point information to rawfile.

Opening the PSF file ../psf/mc1_separate/012/finalTimeOP.info ...
modelParameter: writing model parameter values to rawfile.

Opening the PSF file ../psf/mc1_separate/012/modelParameter.info ...
element: writing instance parameter values to rawfile.

Opening the PSF file ../psf/mc1_separate/012/element.info ...
outputParameter: writing output parameter values to rawfile.

Opening the PSF file ../psf/mc1_separate/012/outputParameter.info ...
designParamVals: writing netlist parameters to rawfile.

Opening the PSFASCII file ../psf/mc1_separate/012/designParamVals.info ...
primitives: writing primitives to rawfile.

Opening the PSFASCII file ../psf/mc1_separate/012/primitives.info.primitives ...
subckts: writing subcircuits to rawfile.

Opening the PSFASCII file ../psf/mc1_separate/012/subckts.info.subckts ...
    mc1: iteration = 12          (11.1 %), step = 1            (1.01 %)
13            12.12% 

************************************************
Transient Analysis `tran': time = (0 s -> 10 ns)
************************************************

Opening the PSF file ../psf/mc1_separate/013/tran.tran.tran ...

Warning from spectre during check, during IC analysis, during transient analysis `tran', during Monte Carlo analysis `mc1'.
    WARNING (CMI-2943): Parameter checks have been ignored because the valid value for parameter 'trise' could not be found in 'C0'.

DC simulation time: CPU = 260 us, elapsed = 261.784 us.
Important parameter values:
    start = 0 s
    outputstart = 0 s
    stop = 10 ns
    step = 10 ps
    maxstep = 100 ps
    ic = all
    useprevic = no
    skipdc = no
    reltol = 10e-06
    abstol(V) = 1 uV
    abstol(I) = 1 pA
    temp = 27 C
    tnom = 27 C
    tempeffects = all
    errpreset = conservative
    method = gear2only
    lteratio = 10
    relref = alllocal
    cmin = 0 F
    gmin = 1 pS
    rabsshort = 1 mOhm


Notice from spectre during transient analysis `tran', during Monte Carlo analysis `mc1'.
    Multithreading is disabled due to the size of the design being too small.


Output and IC/nodeset summary:
                 save   2       (current)
                 save   5       (voltage)

    tran: time = 255.9 ps    (2.56 %), step = 7.362 ps    (73.6 m%)
    tran: time = 753.9 ps    (7.54 %), step = 100 ps          (1 %)
    tran: time = 1.25 ns     (12.5 %), step = 3.375 ps    (33.7 m%)
    tran: time = 1.78 ns     (17.8 %), step = 46.12 ps     (461 m%)
    tran: time = 2.255 ns    (22.5 %), step = 7.268 ps    (72.7 m%)
    tran: time = 2.836 ns    (28.4 %), step = 100 ps          (1 %)
    tran: time = 3.25 ns     (32.5 %), step = 3.375 ps    (33.8 m%)
    tran: time = 3.78 ns     (37.8 %), step = 46.16 ps     (462 m%)
    tran: time = 4.255 ns    (42.5 %), step = 7.268 ps    (72.7 m%)
    tran: time = 4.836 ns    (48.4 %), step = 100 ps          (1 %)
    tran: time = 5.25 ns     (52.5 %), step = 3.375 ps    (33.8 m%)
    tran: time = 5.78 ns     (57.8 %), step = 46.16 ps     (462 m%)
    tran: time = 6.255 ns    (62.5 %), step = 7.268 ps    (72.7 m%)
    tran: time = 6.836 ns    (68.4 %), step = 100 ps          (1 %)
    tran: time = 7.25 ns     (72.5 %), step = 3.375 ps    (33.8 m%)
    tran: time = 7.78 ns     (77.8 %), step = 46.16 ps     (462 m%)
    tran: time = 8.255 ns    (82.5 %), step = 7.268 ps    (72.7 m%)
    tran: time = 8.836 ns    (88.4 %), step = 100 ps          (1 %)
    tran: time = 9.25 ns     (92.5 %), step = 3.375 ps    (33.8 m%)
    tran: time = 9.78 ns     (97.8 %), step = 46.16 ps     (462 m%)
Number of accepted tran steps =             870

Maximum value achieved for any signal of each quantity: 
V: V(net3) = 3.37 V
I: I(V0:p) = 416.9 uA

~~~~~~~~~~~~~~~~~~~~~~~~~~~~~~~~~
Post-Transient Simulation Summary
~~~~~~~~~~~~~~~~~~~~~~~~~~~~~~~~~
   -   To further speed up simulation, consider
          add ++aps on command line
   -   Non-default settings that could significantly slow down simulation
          errpreset = conservative, default moderate
          reltol = 10e-06, default 100e-06 (conservative)
~~~~~~~~~~~~~~~~~~~~~~~~~~~~~~~~~


During simulation, the CPU load for active processors is :
         0 (28.4 %)      1 (9.5 %)       2 (17.2 %)      3 (9.2 %)
         4 (13.6 %)      5 (16.8 %)      6 (7.2 %)       7 (12.1 %)
         8 (11.7 %)      9 (6.9 %)      10 (1.9 %)      11 (7.6 %)
        Total: 142.0%
Initial condition solution time: CPU = 307 us, elapsed = 314.951 us.
Intrinsic tran analysis time:    CPU = 50.084 ms, elapsed = 55.1531 ms.
Total time required for tran analysis `tran': CPU = 53.237 ms, elapsed = 61.511 ms, util. = 86.5%.
Time accumulated: CPU = 1.99455 s, elapsed = 4.83313 s.
Peak resident memory used = 187 Mbytes.

finalTimeOP: writing operating point information to rawfile.

Opening the PSF file ../psf/mc1_separate/013/finalTimeOP.info ...
modelParameter: writing model parameter values to rawfile.

Opening the PSF file ../psf/mc1_separate/013/modelParameter.info ...
element: writing instance parameter values to rawfile.

Opening the PSF file ../psf/mc1_separate/013/element.info ...
outputParameter: writing output parameter values to rawfile.

Opening the PSF file ../psf/mc1_separate/013/outputParameter.info ...
designParamVals: writing netlist parameters to rawfile.

Opening the PSFASCII file ../psf/mc1_separate/013/designParamVals.info ...
primitives: writing primitives to rawfile.

Opening the PSFASCII file ../psf/mc1_separate/013/primitives.info.primitives ...
subckts: writing subcircuits to rawfile.

Opening the PSFASCII file ../psf/mc1_separate/013/subckts.info.subckts ...
    mc1: iteration = 13          (12.1 %), step = 1            (1.01 %)
14            13.13% 

************************************************
Transient Analysis `tran': time = (0 s -> 10 ns)
************************************************

Opening the PSF file ../psf/mc1_separate/014/tran.tran.tran ...

Warning from spectre during check, during IC analysis, during transient analysis `tran', during Monte Carlo analysis `mc1'.
    WARNING (CMI-2943): Parameter checks have been ignored because the valid value for parameter 'trise' could not be found in 'C0'.

DC simulation time: CPU = 234 us, elapsed = 243.902 us.
Important parameter values:
    start = 0 s
    outputstart = 0 s
    stop = 10 ns
    step = 10 ps
    maxstep = 100 ps
    ic = all
    useprevic = no
    skipdc = no
    reltol = 10e-06
    abstol(V) = 1 uV
    abstol(I) = 1 pA
    temp = 27 C
    tnom = 27 C
    tempeffects = all
    errpreset = conservative
    method = gear2only
    lteratio = 10
    relref = alllocal
    cmin = 0 F
    gmin = 1 pS
    rabsshort = 1 mOhm


Notice from spectre during transient analysis `tran', during Monte Carlo analysis `mc1'.
    Multithreading is disabled due to the size of the design being too small.


Output and IC/nodeset summary:
                 save   2       (current)
                 save   5       (voltage)

    tran: time = 255.9 ps    (2.56 %), step = 7.362 ps    (73.6 m%)
    tran: time = 753.9 ps    (7.54 %), step = 100 ps          (1 %)
    tran: time = 1.25 ns     (12.5 %), step = 3.375 ps    (33.7 m%)
    tran: time = 1.78 ns     (17.8 %), step = 46.12 ps     (461 m%)
    tran: time = 2.255 ns    (22.5 %), step = 7.268 ps    (72.7 m%)
    tran: time = 2.836 ns    (28.4 %), step = 100 ps          (1 %)
    tran: time = 3.25 ns     (32.5 %), step = 3.375 ps    (33.8 m%)
    tran: time = 3.78 ns     (37.8 %), step = 46.16 ps     (462 m%)
    tran: time = 4.255 ns    (42.5 %), step = 7.268 ps    (72.7 m%)
    tran: time = 4.836 ns    (48.4 %), step = 100 ps          (1 %)
[...]
Opening the PSFASCII file ../psf/mc1_separate/096/subckts.info.subckts ...
    mc1: iteration = 96            (96 %), step = 1            (1.01 %)
97            96.97% 

************************************************
Transient Analysis `tran': time = (0 s -> 10 ns)
************************************************

Opening the PSF file ../psf/mc1_separate/097/tran.tran.tran ...

Warning from spectre during check, during IC analysis, during transient analysis `tran', during Monte Carlo analysis `mc1'.
    WARNING (CMI-2943): Parameter checks have been ignored because the valid value for parameter 'trise' could not be found in 'C0'.

DC simulation time: CPU = 229 us, elapsed = 229.836 us.
Important parameter values:
    start = 0 s
    outputstart = 0 s
    stop = 10 ns
    step = 10 ps
    maxstep = 100 ps
    ic = all
    useprevic = no
    skipdc = no
    reltol = 10e-06
    abstol(V) = 1 uV
    abstol(I) = 1 pA
    temp = 27 C
    tnom = 27 C
    tempeffects = all
    errpreset = conservative
    method = gear2only
    lteratio = 10
    relref = alllocal
    cmin = 0 F
    gmin = 1 pS
    rabsshort = 1 mOhm


Notice from spectre during transient analysis `tran', during Monte Carlo analysis `mc1'.
    Multithreading is disabled due to the size of the design being too small.


Output and IC/nodeset summary:
                 save   2       (current)
                 save   5       (voltage)

    tran: time = 255.9 ps    (2.56 %), step = 7.362 ps    (73.6 m%)
    tran: time = 753.9 ps    (7.54 %), step = 100 ps          (1 %)
    tran: time = 1.25 ns     (12.5 %), step = 3.375 ps    (33.7 m%)
    tran: time = 1.78 ns     (17.8 %), step = 46.12 ps     (461 m%)
    tran: time = 2.255 ns    (22.5 %), step = 7.268 ps    (72.7 m%)
    tran: time = 2.836 ns    (28.4 %), step = 100 ps          (1 %)
    tran: time = 3.25 ns     (32.5 %), step = 3.375 ps    (33.8 m%)
    tran: time = 3.78 ns     (37.8 %), step = 46.16 ps     (462 m%)
    tran: time = 4.255 ns    (42.5 %), step = 7.268 ps    (72.7 m%)
    tran: time = 4.836 ns    (48.4 %), step = 100 ps          (1 %)
    tran: time = 5.25 ns     (52.5 %), step = 3.375 ps    (33.8 m%)
    tran: time = 5.78 ns     (57.8 %), step = 46.16 ps     (462 m%)
    tran: time = 6.255 ns    (62.5 %), step = 7.268 ps    (72.7 m%)
    tran: time = 6.836 ns    (68.4 %), step = 100 ps          (1 %)
    tran: time = 7.25 ns     (72.5 %), step = 3.375 ps    (33.8 m%)
    tran: time = 7.78 ns     (77.8 %), step = 46.16 ps     (462 m%)
    tran: time = 8.255 ns    (82.5 %), step = 7.268 ps    (72.7 m%)
    tran: time = 8.836 ns    (88.4 %), step = 100 ps          (1 %)
    tran: time = 9.25 ns     (92.5 %), step = 3.375 ps    (33.8 m%)
    tran: time = 9.78 ns     (97.8 %), step = 46.16 ps     (462 m%)
Number of accepted tran steps =             870

Maximum value achieved for any signal of each quantity: 
V: V(net3) = 3.37 V
I: I(V0:p) = 416.9 uA

~~~~~~~~~~~~~~~~~~~~~~~~~~~~~~~~~
Post-Transient Simulation Summary
~~~~~~~~~~~~~~~~~~~~~~~~~~~~~~~~~
   -   To further speed up simulation, consider
          add ++aps on command line
   -   Non-default settings that could significantly slow down simulation
          errpreset = conservative, default moderate
          reltol = 10e-06, default 100e-06 (conservative)
~~~~~~~~~~~~~~~~~~~~~~~~~~~~~~~~~


During simulation, the CPU load for active processors is :
         0 (27.6 %)      1 (22.3 %)      2 (24.0 %)      3 (21.1 %)
         4 (19.0 %)      5 (19.8 %)      6 (15.5 %)      7 (17.0 %)
         8 (21.8 %)      9 (17.8 %)     10 (13.2 %)     11 (20.5 %)
        Total: 239.5%
Initial condition solution time: CPU = 275 us, elapsed = 282.049 us.
Intrinsic tran analysis time:    CPU = 51.483 ms, elapsed = 56.4549 ms.
Total time required for tran analysis `tran': CPU = 54.384 ms, elapsed = 62.619 ms, util. = 86.8%.
Time accumulated: CPU = 9.38735 s, elapsed = 15.7935 s.
Peak resident memory used = 187 Mbytes.

finalTimeOP: writing operating point information to rawfile.

Opening the PSF file ../psf/mc1_separate/097/finalTimeOP.info ...
modelParameter: writing model parameter values to rawfile.

Opening the PSF file ../psf/mc1_separate/097/modelParameter.info ...
element: writing instance parameter values to rawfile.

Opening the PSF file ../psf/mc1_separate/097/element.info ...
outputParameter: writing output parameter values to rawfile.

Opening the PSF file ../psf/mc1_separate/097/outputParameter.info ...
designParamVals: writing netlist parameters to rawfile.

Opening the PSFASCII file ../psf/mc1_separate/097/designParamVals.info ...
primitives: writing primitives to rawfile.

Opening the PSFASCII file ../psf/mc1_separate/097/primitives.info.primitives ...
subckts: writing subcircuits to rawfile.

Opening the PSFASCII file ../psf/mc1_separate/097/subckts.info.subckts ...
    mc1: iteration = 97            (97 %), step = 1            (1.01 %)
98            97.98% 

************************************************
Transient Analysis `tran': time = (0 s -> 10 ns)
************************************************

Opening the PSF file ../psf/mc1_separate/098/tran.tran.tran ...

Warning from spectre during check, during IC analysis, during transient analysis `tran', during Monte Carlo analysis `mc1'.
    WARNING (CMI-2943): Parameter checks have been ignored because the valid value for parameter 'trise' could not be found in 'C0'.

DC simulation time: CPU = 235 us, elapsed = 236.034 us.
Important parameter values:
    start = 0 s
    outputstart = 0 s
    stop = 10 ns
    step = 10 ps
    maxstep = 100 ps
    ic = all
    useprevic = no
    skipdc = no
    reltol = 10e-06
    abstol(V) = 1 uV
    abstol(I) = 1 pA
    temp = 27 C
    tnom = 27 C
    tempeffects = all
    errpreset = conservative
    method = gear2only
    lteratio = 10
    relref = alllocal
    cmin = 0 F
    gmin = 1 pS
    rabsshort = 1 mOhm


Notice from spectre during transient analysis `tran', during Monte Carlo analysis `mc1'.
    Multithreading is disabled due to the size of the design being too small.


Output and IC/nodeset summary:
                 save   2       (current)
                 save   5       (voltage)

    tran: time = 255.9 ps    (2.56 %), step = 7.362 ps    (73.6 m%)
    tran: time = 753.9 ps    (7.54 %), step = 100 ps          (1 %)
    tran: time = 1.25 ns     (12.5 %), step = 3.375 ps    (33.7 m%)
    tran: time = 1.78 ns     (17.8 %), step = 46.12 ps     (461 m%)
    tran: time = 2.255 ns    (22.5 %), step = 7.268 ps    (72.7 m%)
    tran: time = 2.836 ns    (28.4 %), step = 100 ps          (1 %)
    tran: time = 3.25 ns     (32.5 %), step = 3.375 ps    (33.8 m%)
    tran: time = 3.78 ns     (37.8 %), step = 46.16 ps     (462 m%)
    tran: time = 4.255 ns    (42.5 %), step = 7.268 ps    (72.7 m%)
    tran: time = 4.836 ns    (48.4 %), step = 100 ps          (1 %)
    tran: time = 5.25 ns     (52.5 %), step = 3.375 ps    (33.8 m%)
    tran: time = 5.78 ns     (57.8 %), step = 46.16 ps     (462 m%)
    tran: time = 6.255 ns    (62.5 %), step = 7.268 ps    (72.7 m%)
    tran: time = 6.836 ns    (68.4 %), step = 100 ps          (1 %)
    tran: time = 7.25 ns     (72.5 %), step = 3.375 ps    (33.8 m%)
    tran: time = 7.78 ns     (77.8 %), step = 46.16 ps     (462 m%)
    tran: time = 8.255 ns    (82.5 %), step = 7.268 ps    (72.7 m%)
    tran: time = 8.836 ns    (88.4 %), step = 100 ps          (1 %)
    tran: time = 9.25 ns     (92.5 %), step = 3.375 ps    (33.8 m%)
    tran: time = 9.78 ns     (97.8 %), step = 46.16 ps     (462 m%)
Number of accepted tran steps =             870

Maximum value achieved for any signal of each quantity: 
V: V(net3) = 3.37 V
I: I(V0:p) = 416.9 uA

~~~~~~~~~~~~~~~~~~~~~~~~~~~~~~~~~
Post-Transient Simulation Summary
~~~~~~~~~~~~~~~~~~~~~~~~~~~~~~~~~
   -   To further speed up simulation, consider
          add ++aps on command line
   -   Non-default settings that could significantly slow down simulation
          errpreset = conservative, default moderate
          reltol = 10e-06, default 100e-06 (conservative)
~~~~~~~~~~~~~~~~~~~~~~~~~~~~~~~~~


During simulation, the CPU load for active processors is :
         0 (27.4 %)      1 (22.5 %)      2 (24.4 %)      3 (20.9 %)
         4 (19.0 %)      5 (19.8 %)      6 (15.3 %)      7 (17.1 %)
         8 (21.6 %)      9 (17.7 %)     10 (13.1 %)     11 (20.5 %)
        Total: 239.4%
Initial condition solution time: CPU = 286 us, elapsed = 310.183 us.
Intrinsic tran analysis time:    CPU = 51.221 ms, elapsed = 56.633 ms.
Total time required for tran analysis `tran': CPU = 55.11 ms, elapsed = 63.283 ms, util. = 87.1%.
Time accumulated: CPU = 9.47014 s, elapsed = 15.9188 s.
Peak resident memory used = 187 Mbytes.

finalTimeOP: writing operating point information to rawfile.

Opening the PSF file ../psf/mc1_separate/098/finalTimeOP.info ...
modelParameter: writing model parameter values to rawfile.

Opening the PSF file ../psf/mc1_separate/098/modelParameter.info ...
element: writing instance parameter values to rawfile.

Opening the PSF file ../psf/mc1_separate/098/element.info ...
outputParameter: writing output parameter values to rawfile.

Opening the PSF file ../psf/mc1_separate/098/outputParameter.info ...
designParamVals: writing netlist parameters to rawfile.

Opening the PSFASCII file ../psf/mc1_separate/098/designParamVals.info ...
primitives: writing primitives to rawfile.

Opening the PSFASCII file ../psf/mc1_separate/098/primitives.info.primitives ...
subckts: writing subcircuits to rawfile.

Opening the PSFASCII file ../psf/mc1_separate/098/subckts.info.subckts ...
    mc1: iteration = 98            (98 %), step = 1            (1.01 %)
99            98.99% 

************************************************
Transient Analysis `tran': time = (0 s -> 10 ns)
************************************************

Opening the PSF file ../psf/mc1_separate/099/tran.tran.tran ...

Warning from spectre during check, during IC analysis, during transient analysis `tran', during Monte Carlo analysis `mc1'.
    WARNING (CMI-2943): Parameter checks have been ignored because the valid value for parameter 'trise' could not be found in 'C0'.

DC simulation time: CPU = 242 us, elapsed = 244.141 us.
Important parameter values:
    start = 0 s
    outputstart = 0 s
    stop = 10 ns
    step = 10 ps
    maxstep = 100 ps
    ic = all
    useprevic = no
    skipdc = no
    reltol = 10e-06
    abstol(V) = 1 uV
    abstol(I) = 1 pA
    temp = 27 C
    tnom = 27 C
    tempeffects = all
    errpreset = conservative
    method = gear2only
    lteratio = 10
    relref = alllocal
    cmin = 0 F
    gmin = 1 pS
    rabsshort = 1 mOhm


Notice from spectre during transient analysis `tran', during Monte Carlo analysis `mc1'.
    Multithreading is disabled due to the size of the design being too small.


Output and IC/nodeset summary:
                 save   2       (current)
                 save   5       (voltage)

    tran: time = 255.9 ps    (2.56 %), step = 7.362 ps    (73.6 m%)
    tran: time = 753.9 ps    (7.54 %), step = 100 ps          (1 %)
    tran: time = 1.25 ns     (12.5 %), step = 3.375 ps    (33.7 m%)
    tran: time = 1.78 ns     (17.8 %), step = 46.12 ps     (461 m%)
    tran: time = 2.255 ns    (22.5 %), step = 7.268 ps    (72.7 m%)
    tran: time = 2.836 ns    (28.4 %), step = 100 ps          (1 %)
    tran: time = 3.25 ns     (32.5 %), step = 3.375 ps    (33.8 m%)
    tran: time = 3.78 ns     (37.8 %), step = 46.16 ps     (462 m%)
    tran: time = 4.255 ns    (42.5 %), step = 7.268 ps    (72.7 m%)
    tran: time = 4.836 ns    (48.4 %), step = 100 ps          (1 %)
    tran: time = 5.25 ns     (52.5 %), step = 3.375 ps    (33.8 m%)
    tran: time = 5.78 ns     (57.8 %), step = 46.16 ps     (462 m%)
    tran: time = 6.255 ns    (62.5 %), step = 7.268 ps    (72.7 m%)
    tran: time = 6.836 ns    (68.4 %), step = 100 ps          (1 %)
    tran: time = 7.25 ns     (72.5 %), step = 3.375 ps    (33.8 m%)
    tran: time = 7.78 ns     (77.8 %), step = 46.16 ps     (462 m%)
    tran: time = 8.255 ns    (82.5 %), step = 7.268 ps    (72.7 m%)
    tran: time = 8.836 ns    (88.4 %), step = 100 ps          (1 %)
    tran: time = 9.25 ns     (92.5 %), step = 3.375 ps    (33.8 m%)
    tran: time = 9.78 ns     (97.8 %), step = 46.16 ps     (462 m%)
Number of accepted tran steps =             870

Maximum value achieved for any signal of each quantity: 
V: V(net3) = 3.37 V
I: I(V0:p) = 416.9 uA

~~~~~~~~~~~~~~~~~~~~~~~~~~~~~~~~~
Post-Transient Simulation Summary
~~~~~~~~~~~~~~~~~~~~~~~~~~~~~~~~~
   -   To further speed up simulation, consider
          add ++aps on command line
   -   Non-default settings that could significantly slow down simulation
          errpreset = conservative, default moderate
          reltol = 10e-06, default 100e-06 (conservative)
~~~~~~~~~~~~~~~~~~~~~~~~~~~~~~~~~


During simulation, the CPU load for active processors is :
         0 (27.3 %)      1 (22.3 %)      2 (24.7 %)      3 (21.4 %)
         4 (18.9 %)      5 (19.9 %)      6 (15.2 %)      7 (17.2 %)
         8 (21.5 %)      9 (17.6 %)     10 (13.1 %)     11 (21.1 %)
        Total: 240.2%
Initial condition solution time: CPU = 290 us, elapsed = 316.858 us.
Intrinsic tran analysis time:    CPU = 53.252 ms, elapsed = 59.7348 ms.
Total time required for tran analysis `tran': CPU = 56.475 ms, elapsed = 65.9962 ms, util. = 85.6%.
Time accumulated: CPU = 9.55551 s, elapsed = 16.0481 s.
Peak resident memory used = 187 Mbytes.

finalTimeOP: writing operating point information to rawfile.

Opening the PSF file ../psf/mc1_separate/099/finalTimeOP.info ...
modelParameter: writing model parameter values to rawfile.

Opening the PSF file ../psf/mc1_separate/099/modelParameter.info ...
element: writing instance parameter values to rawfile.

Opening the PSF file ../psf/mc1_separate/099/element.info ...
outputParameter: writing output parameter values to rawfile.

Opening the PSF file ../psf/mc1_separate/099/outputParameter.info ...
designParamVals: writing netlist parameters to rawfile.

Opening the PSFASCII file ../psf/mc1_separate/099/designParamVals.info ...
primitives: writing primitives to rawfile.

Opening the PSFASCII file ../psf/mc1_separate/099/primitives.info.primitives ...
subckts: writing subcircuits to rawfile.

Opening the PSFASCII file ../psf/mc1_separate/099/subckts.info.subckts ...
    mc1: iteration = 99            (99 %), step = 1            (1.01 %)
100          100.00% 

************************************************
Transient Analysis `tran': time = (0 s -> 10 ns)
************************************************

Opening the PSF file ../psf/mc1_separate/100/tran.tran.tran ...

Warning from spectre during check, during IC analysis, during transient analysis `tran', during Monte Carlo analysis `mc1'.
    WARNING (CMI-2943): Parameter checks have been ignored because the valid value for parameter 'trise' could not be found in 'C0'.

DC simulation time: CPU = 235 us, elapsed = 236.988 us.
Important parameter values:
    start = 0 s
    outputstart = 0 s
    stop = 10 ns
    step = 10 ps
    maxstep = 100 ps
    ic = all
    useprevic = no
    skipdc = no
    reltol = 10e-06
    abstol(V) = 1 uV
    abstol(I) = 1 pA
    temp = 27 C
    tnom = 27 C
    tempeffects = all
    errpreset = conservative
    method = gear2only
    lteratio = 10
    relref = alllocal
    cmin = 0 F
    gmin = 1 pS
    rabsshort = 1 mOhm


Notice from spectre during transient analysis `tran', during Monte Carlo analysis `mc1'.
    Multithreading is disabled due to the size of the design being too small.


Output and IC/nodeset summary:
                 save   2       (current)
                 save   5       (voltage)

    tran: time = 255.9 ps    (2.56 %), step = 7.362 ps    (73.6 m%)
    tran: time = 753.9 ps    (7.54 %), step = 100 ps          (1 %)
    tran: time = 1.25 ns     (12.5 %), step = 3.375 ps    (33.7 m%)
    tran: time = 1.78 ns     (17.8 %), step = 46.12 ps     (461 m%)
    tran: time = 2.255 ns    (22.5 %), step = 7.268 ps    (72.7 m%)
    tran: time = 2.836 ns    (28.4 %), step = 100 ps          (1 %)
    tran: time = 3.25 ns     (32.5 %), step = 3.375 ps    (33.8 m%)
    tran: time = 3.78 ns     (37.8 %), step = 46.16 ps     (462 m%)
    tran: time = 4.255 ns    (42.5 %), step = 7.268 ps    (72.7 m%)
    tran: time = 4.836 ns    (48.4 %), step = 100 ps          (1 %)
    tran: time = 5.25 ns     (52.5 %), step = 3.375 ps    (33.8 m%)
    tran: time = 5.78 ns     (57.8 %), step = 46.16 ps     (462 m%)
    tran: time = 6.255 ns    (62.5 %), step = 7.268 ps    (72.7 m%)
    tran: time = 6.836 ns    (68.4 %), step = 100 ps          (1 %)
    tran: time = 7.25 ns     (72.5 %), step = 3.375 ps    (33.8 m%)
    tran: time = 7.78 ns     (77.8 %), step = 46.16 ps     (462 m%)
    tran: time = 8.255 ns    (82.5 %), step = 7.268 ps    (72.7 m%)
    tran: time = 8.836 ns    (88.4 %), step = 100 ps          (1 %)
    tran: time = 9.25 ns     (92.5 %), step = 3.375 ps    (33.8 m%)
    tran: time = 9.78 ns     (97.8 %), step = 46.16 ps     (462 m%)
Number of accepted tran steps =             870

Maximum value achieved for any signal of each quantity: 
V: V(net3) = 3.37 V
I: I(V0:p) = 416.9 uA

~~~~~~~~~~~~~~~~~~~~~~~~~~~~~~~~~
Post-Transient Simulation Summary
~~~~~~~~~~~~~~~~~~~~~~~~~~~~~~~~~
   -   To further speed up simulation, consider
          add ++aps on command line
   -   Non-default settings that could significantly slow down simulation
          errpreset = conservative, default moderate
          reltol = 10e-06, default 100e-06 (conservative)
~~~~~~~~~~~~~~~~~~~~~~~~~~~~~~~~~


During simulation, the CPU load for active processors is :
         0 (27.8 %)      1 (22.2 %)      2 (24.7 %)      3 (21.3 %)
         4 (18.8 %)      5 (19.9 %)      6 (15.1 %)      7 (17.1 %)
         8 (21.4 %)      9 (17.6 %)     10 (13.3 %)     11 (21.0 %)
        Total: 240.2%
Initial condition solution time: CPU = 281 us, elapsed = 288.01 us.
Intrinsic tran analysis time:    CPU = 52.235 ms, elapsed = 58.3341 ms.
Total time required for tran analysis `tran': CPU = 55.516 ms, elapsed = 64.8639 ms, util. = 85.6%.
Time accumulated: CPU = 9.64124 s, elapsed = 16.1755 s.
Peak resident memory used = 187 Mbytes.

finalTimeOP: writing operating point information to rawfile.

Opening the PSF file ../psf/mc1_separate/100/finalTimeOP.info ...
modelParameter: writing model parameter values to rawfile.

Opening the PSF file ../psf/mc1_separate/100/modelParameter.info ...
element: writing instance parameter values to rawfile.

Opening the PSF file ../psf/mc1_separate/100/element.info ...
outputParameter: writing output parameter values to rawfile.

Opening the PSF file ../psf/mc1_separate/100/outputParameter.info ...
designParamVals: writing netlist parameters to rawfile.

Opening the PSFASCII file ../psf/mc1_separate/100/designParamVals.info ...
primitives: writing primitives to rawfile.

Opening the PSFASCII file ../psf/mc1_separate/100/primitives.info.primitives ...
subckts: writing subcircuits to rawfile.

Opening the PSFASCII file ../psf/mc1_separate/100/subckts.info.subckts ...
    mc1: iteration = 100          (100 %), step = 1            (1.01 %)
Total time required for montecarlo analysis `mc1': CPU = 8.95013 s, elapsed = 13.3089 s, util. = 67.2%.
Time accumulated: CPU = 9.66656 s, elapsed = 16.2356 s.
Peak resident memory used = 187 Mbytes.

Licensing Information:
Lic Summary:
[16:00:05.080075] Cdslmd servers:5280@ls-dc2-fen-p1.services.bris.ac.uk:5280@ls-dc2-fen-p0.services.bris.ac.uk
[16:00:05.080195] Feature usage summary:
[16:00:05.080195] Virtuoso_Multi_mode_Simulation


Aggregate audit (4:00:05 PM, Mon Mar 11, 2024):
Time used: CPU = 9.67 s, elapsed = 16.2 s, util. = 59.5%.
Time spent in licensing: elapsed = 220 ms.
Peak memory used = 188 Mbytes.
Simulation started at: 3:59:49 PM, Mon Mar 11, 2024, ended at: 4:00:05 PM, Mon Mar 11, 2024, with elapsed time (wall clock): 16.2 s.
spectre completes with 0 errors, 117 warnings, and 109 notices.
