
Spectre (R) Circuit Simulator
Version 21.1.0.751.isr19 64bit -- 22 May 2023
Copyright (C) 1989-2023 Cadence Design Systems, Inc. All rights reserved worldwide. Cadence and Spectre are registered trademarks of Cadence Design Systems, Inc. All others are the property of their respective holders.

Includes RSA BSAFE(R) Cryptographic or Security Protocol Software from RSA Security, Inc.

User: oj23092   Host: it075702.wks.bris.ac.uk   HostID: DE896A87   PID: 1111826
Memory  available: 11.8854 GB  physical: 16.2980 GB
Linux   : Rocky Linux release 8.9 (Green Obsidian)
CPU Type: Intel(R) Core(TM) i7-8700 CPU @ 3.20GHz
        Socket: Processors [Frequency] (Hyperthreaded Processor)
        0:       0 [3200.0] (  6 ),  1 [4395.1] (  7 ),  2 [3200.0] (  8 )
                 3 [3200.0] (  9 ),  4 [3200.0] ( 10 ),  5 [3200.0] ( 11 )
        
System load averages (1min, 5min, 15min) : 0.7 %, 1.1 %, 0.8 %
Hyperthreading is enabled
HPC is enabled


Simulating `input.scs' on it075702.wks.bris.ac.uk at 4:32:22 PM, Fri Apr 12, 2024 (process id: 1111826).
Current working directory: /home/oj23092/VLSI_Design_Lab/Sim/tb_ycircuit/spectre/schematic/netlist
Command line:
     \
        /eda/cadence/2022-23/RHELx86/SPECTRE_21.10.751/tools.lnx86/bin/spectre  \
        -64 input.scs +escchars +log ../psf/spectre.out -format psfbin  \
        +rtsf -raw ../psf +aps +mt +lqtimeout 900 -maxw 5 -maxn 5  \
        +param /eda/cadence/ams/4.10/spectre/ams_range.lmts -env ade

Licensing Information:
[16:32:22.289666] Configured Lic search path (21.01-s002): 5280@ls-dc2-fen-p1.services.bris.ac.uk:5280@ls-dc2-fen-p0.services.bris.ac.uk

Licensing Information:
[16:32:22.510280] Periodic Lic check successful

Loading /eda/cadence/2022-23/RHELx86/SPECTRE_21.10.751/tools.lnx86/cmi/lib/64bit/5.0/libinfineon_sh.so ...
Loading /eda/cadence/2022-23/RHELx86/SPECTRE_21.10.751/tools.lnx86/cmi/lib/64bit/5.0/libphilips_o_sh.so ...
Loading /eda/cadence/2022-23/RHELx86/SPECTRE_21.10.751/tools.lnx86/cmi/lib/64bit/5.0/libphilips_sh.so ...
Loading /eda/cadence/2022-23/RHELx86/SPECTRE_21.10.751/tools.lnx86/cmi/lib/64bit/5.0/libsparam_sh.so ...
Loading /eda/cadence/2022-23/RHELx86/SPECTRE_21.10.751/tools.lnx86/cmi/lib/64bit/5.0/libstmodels_sh.so ...
Reading file:  /home/oj23092/VLSI_Design_Lab/Sim/tb_ycircuit/spectre/schematic/netlist/input.scs
Reading file:  /eda/cadence/ams/4.10/spectre/ams_range.lmts

Warning from spectre during read of parameter soft limits file `/eda/cadence/ams/4.10/spectre/ams_range.lmts', during circuit read-in.
    WARNING (SPECTRE-8360): line 1511: `ac' is an undefined primitive device.
    WARNING (SPECTRE-8360): line 1512: `ac' is an undefined primitive device.
    WARNING (SPECTRE-8360): line 1513: `ac' is an undefined primitive device.
    WARNING (SPECTRE-8360): line 1514: `ac' is an undefined primitive device.
    WARNING (SPECTRE-8360): line 1515: `ac' is an undefined primitive device.
        Further occurrences of this warning will be suppressed.

Reading file:  /eda/cadence/2022-23/RHELx86/SPECTRE_21.10.751/tools.lnx86/spectre/etc/configs/spectre.cfg
Reading file:  /eda/cadence/ams/4.10/spectre/c35/soac/soac.scs
Reading file:  /eda/cadence/ams/4.10/spectre/c35/soac/processOption.scs
Reading file:  /eda/cadence/ams/4.10/spectre/c35/soac/process.scs
Reading file:  /eda/cadence/ams/4.10/spectre/c35/soac/soac.va

Warning from spectre during AHDL read-in.
    WARNING (VACOMP-2435): The environment variable CDS_AHDLCMI_ENABLE is no longer supported. Therefore, the simulator will use the default compiled C code flow.

Reading link:  /eda/cadence/2022-23/RHELx86/SPECTRE_21.10.751/tools.lnx86/spectre/etc/ahdl/constants.h
Reading file:  /eda/cadence/2022-23/RHELx86/SPECTRE_21.10.751/tools.lnx86/spectre/etc/ahdl/constants.vams
Reading link:  /eda/cadence/2022-23/RHELx86/SPECTRE_21.10.751/tools.lnx86/spectre/etc/ahdl/discipline.h
Reading file:  /eda/cadence/2022-23/RHELx86/SPECTRE_21.10.751/tools.lnx86/spectre/etc/ahdl/disciplines.vams
Reading file:  /eda/cadence/ams/4.10/spectre/c35/processOption/C35B4C3.scs
Reading file:  /eda/cadence/ams/4.10/spectre/c35/soac/cmos53.scs
Reading file:  /eda/cadence/ams/4.10/spectre/c35/soac/res.scs
Reading file:  /eda/cadence/ams/4.10/spectre/c35/soac/cap.scs
Reading file:  /eda/cadence/ams/4.10/spectre/c35/soac/bip.scs
Reading file:  /eda/cadence/ams/4.10/spectre/c35/soac/ind.scs
Reading file:  /eda/cadence/ams/4.10/spectre/c35/soac/esddiode.scs
Time for NDB Parsing: CPU = 78.213 ms, elapsed = 430.282 ms.
Time accumulated: CPU = 133.064 ms, elapsed = 430.284 ms.
Peak resident memory used = 159 Mbytes.

TCP: opening server port it075702.wks.bris.ac.uk:51993
Existing shared object for module modp_ahdl is up to date.
Installed compiled interface for modp_ahdl.
Existing shared object for module modn_ahdl is up to date.
Installed compiled interface for modn_ahdl.
Time for Elaboration: CPU = 16.201 ms, elapsed = 21.138 ms.
Time accumulated: CPU = 149.33 ms, elapsed = 451.486 ms.
Peak resident memory used = 168 Mbytes.


Notice from spectre during hierarchy flattening.
    The value 'psf' specified for the 'checklimitdest' option will no longer be supported in future releases. Use 'spectre -h' to see other recommended values for the 'checklimitdest' option.


Time for EDB Visiting: CPU = 1.328 ms, elapsed = 1.99819 ms.
Time accumulated: CPU = 150.724 ms, elapsed = 453.549 ms.
Peak resident memory used = 170 Mbytes.

Loading /eda/cadence/2022-23/RHELx86/SPECTRE_21.10.751/tools.lnx86/mdl/lib/64bit/libSpectreEH_sh.so ...

Warning from spectre during initial setup.
    WARNING (SPECTRE-16460): SOAC_cvarm_vspsub:Specified subcircuit master `cvarm' was not found.
    WARNING (SPECTRE-16462): SOAC_cvarm_vspsub:Error in specification of subcircuit master. Assert is ignored.
    WARNING (SPECTRE-16460): SOAC_cvarm_vbs:Specified subcircuit master `cvarm' was not found.
    WARNING (SPECTRE-16462): SOAC_cvarm_vbs:Error in specification of subcircuit master. Assert is ignored.
    WARNING (SPECTRE-16460): SOAC_cvarm_vgb:Specified subcircuit master `cvarm' was not found.
    WARNING (SPECTRE-16462): SOAC_cvarm_vgb:Error in specification of subcircuit master. Assert is ignored.
    WARNING (SPECTRE-16460): SOAC_cvart_vspsub:Specified subcircuit master `cvart' was not found.
    WARNING (SPECTRE-16462): SOAC_cvart_vspsub:Error in specification of subcircuit master. Assert is ignored.
    WARNING (SPECTRE-16460): SOAC_cvart_vbs:Specified subcircuit master `cvart' was not found.
        Further occurrences of this warning will be suppressed.
    WARNING (SPECTRE-16462): SOAC_cvart_vbs:Error in specification of subcircuit master. Assert is ignored.
        Further occurrences of this warning will be suppressed.
Notice from spectre during initial setup.
    Ignorevaref=yes is ignored since all nodes are connected to Verilog-A modules.
Notice from spectre during topology check.
    Only one connection to the following 8 nodes:
        I0.MPD.psub!
        I0.MPC.psub!
        I0.MPB.psub!
        I0.MPA.psub!
        I0.MNC.psub!
        Further occurrences of this notice will be suppressed.
Notice from spectre during initial setup.
    Multithreading is disabled due to the size of the design being too small.


Global user options:
         psfversion = 1.4.0
            vabstol = 1e-06
            iabstol = 1e-12
               temp = 27
           homotopy = 5
              limit = delta
         compatible = spice2
               gmin = 1e-12
             rforce = 1
           maxnotes = 5
           maxwarns = 5
             digits = 5
               cols = 80
             pivrel = 0.001
           sensfile = ../psf/sens.output
     checklimitdest = psf
     enable_pre_ver = yes
      ignorezerovar = yes
               save = allpub
             reltol = 0.0001
               tnom = 27
             scalem = 1
              scale = 1

Scoped user options:

Circuit inventory:
              nodes 17
            bsim3v3 8     
          capacitor 1     
          modn_ahdl 4     
          modp_ahdl 4     
            vsource 5     

Analysis and control statement inventory:
               info 7     
               tran 1     

Output statements:
             .probe 0     
           .measure 0     
               save 0     

Design checks inventory:
          paramtest 8     
             assert 175   


Notice from spectre during initial setup.
    APS enabled.
    1 notice suppressed.
    72 warnings suppressed.

Time for parsing: CPU = 5.473 ms, elapsed = 297.064 ms.
Time accumulated: CPU = 156.253 ms, elapsed = 750.668 ms.
Peak resident memory used = 175 Mbytes.

~~~~~~~~~~~~~~~~~~~~~~
Pre-Simulation Summary
~~~~~~~~~~~~~~~~~~~~~~
   -   (APS) Multi-threading. The recommended number of threads is 1, consider adding +mt=1 on command line.
~~~~~~~~~~~~~~~~~~~~~~

Notice from spectre during transient analysis `tran'.
    No checklimit analysis defined for asserts. A default checklimit analysis 'SpectreChecklimitAnal' has been created with all asserts enabled.


************************************************
Transient Analysis `tran': time = (0 s -> 20 ns)
************************************************

Notice from spectre during IC analysis, during transient analysis `tran'.
    GminDC = 1 pS is large enough to noticeably affect the DC solution.
        dV(I0.net2) = 62.8848 mV
        Use the `gmin_check' option to eliminate or expand this report.
Warning from spectre during check, during IC analysis, during transient analysis `tran'.
    WARNING (CMI-2943): Parameter checks have been ignored because the valid value for parameter 'trise' could not be found in 'C0'.

DC simulation time: CPU = 600 us, elapsed = 602.961 us.

Opening the PSF file ../psf/tran.tran.tran ...
Important parameter values:
    start = 0 s
    outputstart = 0 s
    stop = 20 ns
    step = 20 ps
    maxstep = 200 ps
    ic = all
    useprevic = no
    skipdc = no
    reltol = 10e-06
    abstol(V) = 1 uV
    abstol(I) = 1 pA
    temp = 27 C
    tnom = 27 C
    tempeffects = all
    errpreset = conservative
    method = gear2only
    lteratio = 10
    relref = alllocal
    cmin = 0 F
    gmin = 1 pS
    rabsshort = 1 mOhm


Notice from spectre during transient analysis `tran'.
    Multithreading is disabled due to the size of the design being too small.


Output and IC/nodeset summary:
                 save   5       (current)
                 save   17      (voltage)

    tran: time = 532.4 ps    (2.66 %), step = 50.17 ps     (251 m%)
SOAC: I0.MND.soac_m1       modn V(B,PSUB): LEAVING@  0us ;
SOAC: I0.MND.soac_m1       modn V(B,PSUB): ENTERING@ 0.00106375us duration:0.00106us ;
    tran: time = 1.506 ns    (7.53 %), step = 39.36 ps     (197 m%)
    tran: time = 2.628 ns    (13.1 %), step = 128.5 ps     (642 m%)

Warning from spectre at time = 3.01891 ns during transient analysis `tran'.
    WARNING (CMI-2139): I0.MNB: The bulk-drain junction current exceeds `imelt'.  The results computed by Spectre may be inaccurate because the junction current model has been linearized.
    WARNING (CMI-2144): I0.MNB: The bulk-drain junction current exceeds `imax'.
Notice from spectre at time = 3.02035 ns during transient analysis `tran'.
    I0.MNB: The bulk-drain junction leaves the linearized region.
    I0.MNB: The bulk-drain junction current no longer exceeds `imax'.

    tran: time = 3.507 ns    (17.5 %), step = 41.31 ps     (207 m%)
SOAC: I0.MND.soac_m1       modn V(B,PSUB): LEAVING@  0.00301011us ;
    tran: time = 4.59 ns       (23 %), step = 90.82 ps     (454 m%)
SOAC: I0.MND.soac_m1       modn V(B,PSUB): ENTERING@ 0.00500259us duration:0.00199us ;
    tran: time = 5.521 ns    (27.6 %), step = 32.8 ps      (164 m%)
    tran: time = 6.518 ns    (32.6 %), step = 20.82 ps     (104 m%)

Warning from spectre at time = 7.01893 ns during transient analysis `tran'.
    WARNING (CMI-2139): I0.MNB: The bulk-drain junction current exceeds `imelt'.  The results computed by Spectre may be inaccurate because the junction current model has been linearized.
    WARNING (CMI-2144): I0.MNB: The bulk-drain junction current exceeds `imax'.
Notice from spectre at time = 7.02035 ns during transient analysis `tran'.
    I0.MNB: The bulk-drain junction leaves the linearized region.
    I0.MNB: The bulk-drain junction current no longer exceeds `imax'.

    tran: time = 7.508 ns    (37.5 %), step = 41.34 ps     (207 m%)
SOAC: I0.MND.soac_m1       modn V(B,PSUB): LEAVING@  0.00701011us ;
    tran: time = 8.503 ns    (42.5 %), step = 73.45 ps     (367 m%)
SOAC: I0.MND.soac_m1       modn V(B,PSUB): ENTERING@ 0.00900501us duration:0.00199us ;
    tran: time = 9.505 ns    (47.5 %), step = 58.29 ps     (291 m%)
    tran: time = 10.52 ns    (52.6 %), step = 20.21 ps     (101 m%)

Warning from spectre at time = 11.0184 ns during transient analysis `tran'.
    WARNING (CMI-2139): I0.MNB: The bulk-drain junction current exceeds `imelt'.  The results computed by Spectre may be inaccurate because the junction current model has been linearized.
    WARNING (CMI-2144): I0.MNB: The bulk-drain junction current exceeds `imax'.
Warning from spectre at time = 11.0193 ns during transient analysis `tran'.
    WARNING (CMI-2139): I0.MNC: The bulk-drain junction current exceeds `imelt'.  The results computed by Spectre may be inaccurate because the junction current model has been linearized.
    WARNING (CMI-2144): I0.MNC: The bulk-drain junction current exceeds `imax'.
Notice from spectre at time = 11.0203 ns during transient analysis `tran'.
    I0.MNC: The bulk-drain junction leaves the linearized region.
    I0.MNC: The bulk-drain junction current no longer exceeds `imax'.
Notice from spectre at time = 11.0203 ns during transient analysis `tran'.
    I0.MNB: The bulk-drain junction leaves the linearized region.
    I0.MNB: The bulk-drain junction current no longer exceeds `imax'.

    tran: time = 11.5 ns     (57.5 %), step = 25.12 ps     (126 m%)
SOAC: I0.MND.soac_m1       modn V(B,PSUB): LEAVING@  0.0115018us ;
    tran: time = 12.5 ns     (62.5 %), step = 48.36 ps     (242 m%)
SOAC: I0.MND.soac_m1       modn V(B,PSUB): ENTERING@ 0.0130376us duration:0.00154us ;
    tran: time = 13.53 ns    (67.7 %), step = 51.39 ps     (257 m%)
    tran: time = 14.63 ns    (73.1 %), step = 129.7 ps     (648 m%)
    tran: time = 15.54 ns    (77.7 %), step = 40.42 ps     (202 m%)
SOAC: I0.MND.soac_m1       modn V(B,PSUB): LEAVING@  0.0150003us ;
    tran: time = 16.56 ns    (82.8 %), step = 75.32 ps     (377 m%)
SOAC: I0.MND.soac_m1       modn V(B,PSUB): ENTERING@ 0.0170634us duration:0.00206us ;
    tran: time = 17.52 ns    (87.6 %), step = 41.12 ps     (206 m%)
    tran: time = 18.51 ns    (92.5 %), step = 96.34 ps     (482 m%)

Warning from spectre at time = 19.0189 ns during transient analysis `tran'.
    WARNING (CMI-2139): I0.MNB: The bulk-drain junction current exceeds `imelt'.  The results computed by Spectre may be inaccurate because the junction current model has been linearized.
        Further occurrences of this warning will be suppressed.
    WARNING (CMI-2144): I0.MNB: The bulk-drain junction current exceeds `imax'.
        Further occurrences of this warning will be suppressed.
Notice from spectre at time = 19.0203 ns during transient analysis `tran'.
    I0.MNB: The bulk-drain junction leaves the linearized region.
        Further occurrences of this notice will be suppressed.
    I0.MNB: The bulk-drain junction current no longer exceeds `imax'.
        Further occurrences of this notice will be suppressed.

    tran: time = 19.51 ns    (97.5 %), step = 41.41 ps     (207 m%)
Number of accepted tran steps =             2643

Maximum value achieved for any signal of each quantity: 
V: V(I0.net1) = 3.923 V
I: I(V:p) = 1.573 mA

~~~~~~~~~~~~~~~~~~~~~~~~~~~~~~~~~
Post-Transient Simulation Summary
~~~~~~~~~~~~~~~~~~~~~~~~~~~~~~~~~
   -   To further speed up simulation, consider
          add ++aps on command line
   -   Non-default settings that could significantly slow down simulation
          errpreset = conservative, default moderate
          reltol = 10e-06, default 100e-06 (conservative)
   -   Features that may significantly slowing down simulation
          asserts = 56.7968 ms
~~~~~~~~~~~~~~~~~~~~~~~~~~~~~~~~~


During simulation, the CPU load for active processors is :
         0 (2.9 %)       1 (10.8 %)      3 (2.0 %)       5 (2.0 %)
         7 (2.9 %)       8 (16.7 %)      9 (4.9 %)      10 (37.9 %)
        11 (5.8 %)      
        Total: 87.8%
Initial condition solution time: CPU = 621 us, elapsed = 622.988 us.
Intrinsic tran analysis time:    CPU = 283.455 ms, elapsed = 293.378 ms.
Total time required for tran analysis `tran': CPU = 286.539 ms, elapsed = 310.678 ms, util. = 92.2%.
Time accumulated: CPU = 447.341 ms, elapsed = 1.07231 s.
Peak resident memory used = 184 Mbytes.

finalTimeOP: writing operating point information to rawfile.

Opening the PSF file ../psf/finalTimeOP.info ...
modelParameter: writing model parameter values to rawfile.

Opening the PSF file ../psf/modelParameter.info ...
element: writing instance parameter values to rawfile.

Opening the PSF file ../psf/element.info ...
outputParameter: writing output parameter values to rawfile.

Opening the PSF file ../psf/outputParameter.info ...
designParamVals: writing netlist parameters to rawfile.

Opening the PSFASCII file ../psf/designParamVals.info ...
primitives: writing primitives to rawfile.

Opening the PSFASCII file ../psf/primitives.info.primitives ...
subckts: writing subcircuits to rawfile.

Opening the PSFASCII file ../psf/subckts.info.subckts ...
Licensing Information:
Lic Summary:
[16:32:23.274832] Cdslmd servers:5280@ls-dc2-fen-p1.services.bris.ac.uk:5280@ls-dc2-fen-p0.services.bris.ac.uk
[16:32:23.274864] Feature usage summary:
[16:32:23.274864] Virtuoso_Multi_mode_Simulation


Aggregate audit (4:32:23 PM, Fri Apr 12, 2024):
Time used: CPU = 459 ms, elapsed = 1.1 s, util. = 41.7%.
Time spent in licensing: elapsed = 364 ms, percentage of total = 33%.
Peak memory used = 187 Mbytes.
Simulation started at: 4:32:22 PM, Fri Apr 12, 2024, ended at: 4:32:23 PM, Fri Apr 12, 2024, with elapsed time (wall clock): 1.1 s.
spectre completes with 0 errors, 27 warnings, and 20 notices.
