
Spectre (R) Circuit Simulator
Version 21.1.0.751.isr19 64bit -- 22 May 2023
Copyright (C) 1989-2023 Cadence Design Systems, Inc. All rights reserved worldwide. Cadence and Spectre are registered trademarks of Cadence Design Systems, Inc. All others are the property of their respective holders.

Includes RSA BSAFE(R) Cryptographic or Security Protocol Software from RSA Security, Inc.

User: oj23092   Host: it075724.wks.bris.ac.uk   HostID: DE898787   PID: 78118
Memory  available: 12.8128 GB  physical: 16.2980 GB
Linux   : Rocky Linux release 8.9 (Green Obsidian)
CPU Type: Intel(R) Core(TM) i7-8700 CPU @ 3.20GHz
        Socket: Processors [Frequency] (Hyperthreaded Processor)
        0:       0 [3200.0] (  6 ),  1 [4356.5] (  7 ),  2 [4299.9] (  8 )
                 3 [3200.0] (  9 ),  4 [3200.0] ( 10 ),  5 [3200.0] ( 11 )
        
System load averages (1min, 5min, 15min) : 2.0 %, 0.8 %, 0.3 %
Hyperthreading is enabled
HPC is enabled


Simulating `input.scs' on it075724.wks.bris.ac.uk at 2:23:02 PM, Mon Apr 22, 2024 (process id: 78118).
Current working directory: /home/oj23092/VLSI_Design_Lab/Sim/tb_xort/spectre/schematic/netlist
Command line:
     \
        /eda/cadence/2022-23/RHELx86/SPECTRE_21.10.751/tools.lnx86/bin/spectre  \
        -64 input.scs +escchars +log ../psf/spectre.out -format psfbin  \
        +rtsf -raw ../psf +aps +mt +lqtimeout 900 -maxw 5 -maxn 5  \
        +param /eda/cadence/ams/4.10/spectre/ams_range.lmts -env ade

Licensing Information:
[14:23:02.289634] Configured Lic search path (21.01-s002): 5280@ls-dc2-fen-p1.services.bris.ac.uk:5280@ls-dc2-fen-p0.services.bris.ac.uk

Licensing Information:
[14:23:02.084040] Periodic Lic check successful

Loading /eda/cadence/2022-23/RHELx86/SPECTRE_21.10.751/tools.lnx86/cmi/lib/64bit/5.0/libinfineon_sh.so ...
Loading /eda/cadence/2022-23/RHELx86/SPECTRE_21.10.751/tools.lnx86/cmi/lib/64bit/5.0/libphilips_o_sh.so ...
Loading /eda/cadence/2022-23/RHELx86/SPECTRE_21.10.751/tools.lnx86/cmi/lib/64bit/5.0/libphilips_sh.so ...
Loading /eda/cadence/2022-23/RHELx86/SPECTRE_21.10.751/tools.lnx86/cmi/lib/64bit/5.0/libsparam_sh.so ...
Loading /eda/cadence/2022-23/RHELx86/SPECTRE_21.10.751/tools.lnx86/cmi/lib/64bit/5.0/libstmodels_sh.so ...
Reading file:  /home/oj23092/VLSI_Design_Lab/Sim/tb_xort/spectre/schematic/netlist/input.scs
Reading file:  /eda/cadence/ams/4.10/spectre/ams_range.lmts

Warning from spectre during read of parameter soft limits file `/eda/cadence/ams/4.10/spectre/ams_range.lmts', during circuit read-in.
    WARNING (SPECTRE-8360): line 1511: `ac' is an undefined primitive device.
    WARNING (SPECTRE-8360): line 1512: `ac' is an undefined primitive device.
    WARNING (SPECTRE-8360): line 1513: `ac' is an undefined primitive device.
    WARNING (SPECTRE-8360): line 1514: `ac' is an undefined primitive device.
    WARNING (SPECTRE-8360): line 1515: `ac' is an undefined primitive device.
        Further occurrences of this warning will be suppressed.

Reading file:  /eda/cadence/2022-23/RHELx86/SPECTRE_21.10.751/tools.lnx86/spectre/etc/configs/spectre.cfg
Reading file:  /eda/cadence/ams/4.10/spectre/c35/soac/soac.scs
Reading file:  /eda/cadence/ams/4.10/spectre/c35/soac/processOption.scs
Reading file:  /eda/cadence/ams/4.10/spectre/c35/soac/process.scs
Reading file:  /eda/cadence/ams/4.10/spectre/c35/soac/soac.va

Warning from spectre during AHDL read-in.
    WARNING (VACOMP-2435): The environment variable CDS_AHDLCMI_ENABLE is no longer supported. Therefore, the simulator will use the default compiled C code flow.

Reading link:  /eda/cadence/2022-23/RHELx86/SPECTRE_21.10.751/tools.lnx86/spectre/etc/ahdl/constants.h
Reading file:  /eda/cadence/2022-23/RHELx86/SPECTRE_21.10.751/tools.lnx86/spectre/etc/ahdl/constants.vams
Reading link:  /eda/cadence/2022-23/RHELx86/SPECTRE_21.10.751/tools.lnx86/spectre/etc/ahdl/discipline.h
Reading file:  /eda/cadence/2022-23/RHELx86/SPECTRE_21.10.751/tools.lnx86/spectre/etc/ahdl/disciplines.vams
Reading file:  /eda/cadence/ams/4.10/spectre/c35/processOption/C35B4C3.scs
Reading file:  /eda/cadence/ams/4.10/spectre/c35/soac/cmos53.scs
Reading file:  /eda/cadence/ams/4.10/spectre/c35/soac/res.scs
Reading file:  /eda/cadence/ams/4.10/spectre/c35/soac/cap.scs
Reading file:  /eda/cadence/ams/4.10/spectre/c35/soac/bip.scs
Reading file:  /eda/cadence/ams/4.10/spectre/c35/soac/ind.scs
Reading file:  /eda/cadence/ams/4.10/spectre/c35/soac/esddiode.scs
Time for NDB Parsing: CPU = 74.81 ms, elapsed = 300.115 ms.
Time accumulated: CPU = 130.504 ms, elapsed = 300.117 ms.
Peak resident memory used = 155 Mbytes.

TCP: opening server port it075724.wks.bris.ac.uk:40077
Existing shared object for module modp_ahdl is up to date.
Installed compiled interface for modp_ahdl.
Existing shared object for module modn_ahdl is up to date.
Installed compiled interface for modn_ahdl.
Time for Elaboration: CPU = 16.059 ms, elapsed = 17.468 ms.
Time accumulated: CPU = 146.629 ms, elapsed = 317.65 ms.
Peak resident memory used = 164 Mbytes.


Notice from spectre during hierarchy flattening.
    The value 'psf' specified for the 'checklimitdest' option will no longer be supported in future releases. Use 'spectre -h' to see other recommended values for the 'checklimitdest' option.


Time for EDB Visiting: CPU = 1.295 ms, elapsed = 1.65296 ms.
Time accumulated: CPU = 147.993 ms, elapsed = 319.371 ms.
Peak resident memory used = 166 Mbytes.

Loading /eda/cadence/2022-23/RHELx86/SPECTRE_21.10.751/tools.lnx86/mdl/lib/64bit/libSpectreEH_sh.so ...

Warning from spectre during initial setup.
    WARNING (SPECTRE-16460): SOAC_cvarm_vspsub:Specified subcircuit master `cvarm' was not found.
    WARNING (SPECTRE-16462): SOAC_cvarm_vspsub:Error in specification of subcircuit master. Assert is ignored.
    WARNING (SPECTRE-16460): SOAC_cvarm_vbs:Specified subcircuit master `cvarm' was not found.
    WARNING (SPECTRE-16462): SOAC_cvarm_vbs:Error in specification of subcircuit master. Assert is ignored.
    WARNING (SPECTRE-16460): SOAC_cvarm_vgb:Specified subcircuit master `cvarm' was not found.
    WARNING (SPECTRE-16462): SOAC_cvarm_vgb:Error in specification of subcircuit master. Assert is ignored.
    WARNING (SPECTRE-16460): SOAC_cvart_vspsub:Specified subcircuit master `cvart' was not found.
    WARNING (SPECTRE-16462): SOAC_cvart_vspsub:Error in specification of subcircuit master. Assert is ignored.
    WARNING (SPECTRE-16460): SOAC_cvart_vbs:Specified subcircuit master `cvart' was not found.
        Further occurrences of this warning will be suppressed.
    WARNING (SPECTRE-16462): SOAC_cvart_vbs:Error in specification of subcircuit master. Assert is ignored.
        Further occurrences of this warning will be suppressed.
Notice from spectre during initial setup.
    Ignorevaref=yes is ignored since all nodes are connected to Verilog-A modules.
Notice from spectre during topology check.
    Only one connection to the following 6 nodes:
        I0.MP1.psub!
        I0.MP0.psub!
        I0.MN1.psub!
        I0.MN0.psub!
        I0.I0.MN0.psub!
        Further occurrences of this notice will be suppressed.
Notice from spectre during initial setup.
    Multithreading is disabled due to the size of the design being too small.


Global user options:
         psfversion = 1.4.0
            vabstol = 1e-06
            iabstol = 1e-12
               temp = 27
           homotopy = 5
              limit = delta
         compatible = spice2
               gmin = 1e-12
             rforce = 1
           maxnotes = 5
           maxwarns = 5
             digits = 5
               cols = 80
             pivrel = 0.001
           sensfile = ../psf/sens.output
     checklimitdest = psf
     enable_pre_ver = yes
      ignorezerovar = yes
               save = allpub
             reltol = 0.0001
               tnom = 27
             scalem = 1
              scale = 1

Scoped user options:

Circuit inventory:
              nodes 11
            bsim3v3 6     
          capacitor 1     
          modn_ahdl 3     
          modp_ahdl 3     
            vsource 3     

Analysis and control statement inventory:
               info 7     
               tran 1     

Output statements:
             .probe 0     
           .measure 0     
               save 0     

Design checks inventory:
          paramtest 6     
             assert 175   


Notice from spectre during initial setup.
    APS enabled.
    1 notice suppressed.
    72 warnings suppressed.

Time for parsing: CPU = 5.174 ms, elapsed = 222.969 ms.
Time accumulated: CPU = 153.224 ms, elapsed = 542.397 ms.
Peak resident memory used = 171 Mbytes.

~~~~~~~~~~~~~~~~~~~~~~
Pre-Simulation Summary
~~~~~~~~~~~~~~~~~~~~~~
   -   (APS) Multi-threading. The recommended number of threads is 1, consider adding +mt=1 on command line.
~~~~~~~~~~~~~~~~~~~~~~

Notice from spectre during transient analysis `tran'.
    No checklimit analysis defined for asserts. A default checklimit analysis 'SpectreChecklimitAnal' has been created with all asserts enabled.


***********************************************
Transient Analysis `tran': time = (0 s -> 8 ns)
***********************************************

Warning from spectre during check, during IC analysis, during transient analysis `tran'.
    WARNING (CMI-2943): Parameter checks have been ignored because the valid value for parameter 'trise' could not be found in 'C0'.

DC simulation time: CPU = 377 us, elapsed = 375.986 us.

Opening the PSF file ../psf/tran.tran.tran ...
Important parameter values:
    start = 0 s
    outputstart = 0 s
    stop = 8 ns
    step = 8 ps
    maxstep = 80 ps
    ic = all
    useprevic = no
    skipdc = no
    reltol = 10e-06
    abstol(V) = 1 uV
    abstol(I) = 1 pA
    temp = 27 C
    tnom = 27 C
    tempeffects = all
    errpreset = conservative
    method = gear2only
    lteratio = 10
    relref = alllocal
    cmin = 0 F
    gmin = 1 pS
    rabsshort = 1 mOhm


Notice from spectre during transient analysis `tran'.
    Multithreading is disabled due to the size of the design being too small.


Output and IC/nodeset summary:
                 save   3       (current)
                 save   11      (voltage)

    tran: time = 206.5 ps    (2.58 %), step = 7.222 ps    (90.3 m%)
    tran: time = 670.1 ps    (8.38 %), step = 80 ps           (1 %)
SOAC: I0.MN1.soac_m1       modn V(B,PSUB): LEAVING@  0us ;
NOTE: I0.MN1.soac_m1 V(S)>V(D) => Pins swapped. Electrical pins checked ;
    tran: time = 1 ns        (12.5 %), step = 44.93 ps     (562 m%)
SOAC: I0.MN1.soac_m1       modn V(D,B): FORWARD_DIODE@ 9.30903e-05us ;
NOTE: I0.MN1.soac_m1 V(S)>V(D) => Pins swapped. Electrical pins checked ;
SOAC: I0.MN0.soac_m1       modn V(B,PSUB): LEAVING@  0.000121791us ;
NOTE: I0.MN0.soac_m1 V(S)>V(D) => Pins swapped. Electrical pins checked ;
SOAC: I0.MN0.soac_m1       modn V(D,B): FORWARD_DIODE@ 0.000165264us ;
NOTE: I0.MN0.soac_m1 V(S)>V(D) => Pins swapped. Electrical pins checked ;
    tran: time = 1.405 ns    (17.6 %), step = 80 ps           (1 %)
    tran: time = 1.805 ns    (22.6 %), step = 80 ps           (1 %)

Warning from spectre at time = 2.15103 ns during transient analysis `tran'.
    WARNING (CMI-2139): I0.MP1: The bulk-source junction current exceeds `imelt'.  The results computed by Spectre may be inaccurate because the junction current model has been linearized.
    WARNING (CMI-2144): I0.MP1: The bulk-source junction current exceeds `imax'.
Warning from spectre at time = 2.15334 ns during transient analysis `tran'.
    WARNING (CMI-2139): I0.MN0: The bulk-drain junction current exceeds `imelt'.  The results computed by Spectre may be inaccurate because the junction current model has been linearized.
    WARNING (CMI-2144): I0.MN0: The bulk-drain junction current exceeds `imax'.

    tran: time = 2.2 ns      (27.5 %), step = 2.422 ps    (30.3 m%)
SOAC: I0.MN1.soac_m1       modn V(B,PSUB): ENTERING@ 0.00223988us duration:0.00224us ;
    tran: time = 2.655 ns    (33.2 %), step = 80 ps           (1 %)
    tran: time = 3.055 ns    (38.2 %), step = 80 ps           (1 %)
SOAC: I0.MP1.soac_m1       modp V(S,B): FORWARD_DIODE@ 0.00213925us ;
    tran: time = 3.459 ns    (43.2 %), step = 80 ps           (1 %)
    tran: time = 3.859 ns    (48.2 %), step = 80 ps           (1 %)

Notice from spectre at time = 4.04977 ns during transient analysis `tran'.
    I0.MN0: The bulk-drain junction leaves the linearized region.
    I0.MN0: The bulk-drain junction current no longer exceeds `imax'.
    I0.MP1: The bulk-source junction leaves the linearized region.
    I0.MP1: The bulk-source junction current no longer exceeds `imax'.

    tran: time = 4.2 ns      (52.5 %), step = 863.4 fs    (10.8 m%)
    tran: time = 4.614 ns    (57.7 %), step = 39.54 ps     (494 m%)
    tran: time = 5.005 ns    (62.6 %), step = 60.12 ps     (752 m%)
SOAC: I0.MN1.soac_m1       modn V(B,PSUB): LEAVING@  0.00406494us ;
    tran: time = 5.431 ns    (67.9 %), step = 80 ps           (1 %)
    tran: time = 5.831 ns    (72.9 %), step = 80 ps           (1 %)
    tran: time = 6.2 ns      (77.5 %), step = 153.8 fs    (1.92 m%)
    tran: time = 6.653 ns    (83.2 %), step = 80 ps           (1 %)
    tran: time = 7.053 ns    (88.2 %), step = 80 ps           (1 %)
SOAC: I0.MP0.soac_m1       modp V(D,B): FORWARD_DIODE@ 0.00621339us ;
SOAC: I0.MP1.soac_m1       modp V(S,B): FORWARD_DIODE@ 0.00621339us ;
    tran: time = 7.453 ns    (93.2 %), step = 80 ps           (1 %)
    tran: time = 7.853 ns    (98.2 %), step = 80 ps           (1 %)
Number of accepted tran steps =             539

Maximum value achieved for any signal of each quantity: 
V: V(net3) = 3.56 V
I: I(VB:p) = 7.656 mA

~~~~~~~~~~~~~~~~~~~~~~~~~~~~~~~~~
Post-Transient Simulation Summary
~~~~~~~~~~~~~~~~~~~~~~~~~~~~~~~~~
   -   To further speed up simulation, consider
          add ++aps on command line
   -   Non-default settings that could significantly slow down simulation
          errpreset = conservative, default moderate
          reltol = 10e-06, default 100e-06 (conservative)
   -   Features that may significantly slowing down simulation
          asserts = 43.227 ms
~~~~~~~~~~~~~~~~~~~~~~~~~~~~~~~~~


During simulation, the CPU load for active processors is :
         0 (3.3 %)       1 (15.9 %)      2 (6.6 %)       3 (6.6 %)
         4 (4.9 %)       5 (3.2 %)       6 (3.3 %)       7 (17.7 %)
         8 (18.0 %)      9 (3.3 %)      10 (3.3 %)      11 (4.9 %)
        Total: 91.0%
Initial condition solution time: CPU = 399 us, elapsed = 400.066 us.
Intrinsic tran analysis time:    CPU = 81.298 ms, elapsed = 89.0219 ms.
Total time required for tran analysis `tran': CPU = 83.996 ms, elapsed = 105.033 ms, util. = 80%.
Time accumulated: CPU = 241.412 ms, elapsed = 653.811 ms.
Peak resident memory used = 180 Mbytes.

finalTimeOP: writing operating point information to rawfile.

Opening the PSF file ../psf/finalTimeOP.info ...
modelParameter: writing model parameter values to rawfile.

Opening the PSF file ../psf/modelParameter.info ...
element: writing instance parameter values to rawfile.

Opening the PSF file ../psf/element.info ...
outputParameter: writing output parameter values to rawfile.

Opening the PSF file ../psf/outputParameter.info ...
designParamVals: writing netlist parameters to rawfile.

Opening the PSFASCII file ../psf/designParamVals.info ...
primitives: writing primitives to rawfile.

Opening the PSFASCII file ../psf/primitives.info.primitives ...
subckts: writing subcircuits to rawfile.

Opening the PSFASCII file ../psf/subckts.info.subckts ...
Licensing Information:
Lic Summary:
[14:23:03.050328] Cdslmd servers:5280@ls-dc2-fen-p1.services.bris.ac.uk:5280@ls-dc2-fen-p0.services.bris.ac.uk
[14:23:03.050346] Feature usage summary:
[14:23:03.050347] Virtuoso_Multi_mode_Simulation


Aggregate audit (2:23:03 PM, Mon Apr 22, 2024):
Time used: CPU = 252 ms, elapsed = 682 ms, util. = 37%.
Time spent in licensing: elapsed = 169 ms, percentage of total = 24.8%.
Peak memory used = 182 Mbytes.
Simulation started at: 2:23:02 PM, Mon Apr 22, 2024, ended at: 2:23:03 PM, Mon Apr 22, 2024, with elapsed time (wall clock): 682 ms.
spectre completes with 0 errors, 21 warnings, and 13 notices.
