
Spectre (R) Circuit Simulator
Version 21.1.0.751.isr19 64bit -- 22 May 2023
Copyright (C) 1989-2023 Cadence Design Systems, Inc. All rights reserved worldwide. Cadence and Spectre are registered trademarks of Cadence Design Systems, Inc. All others are the property of their respective holders.

Includes RSA BSAFE(R) Cryptographic or Security Protocol Software from RSA Security, Inc.

User: oj23092   Host: it075891.wks.bris.ac.uk   HostID: DE89A69F   PID: 237282
Memory  available: 12.5796 GB  physical: 16.2980 GB
Linux   : Rocky Linux release 8.9 (Green Obsidian)
CPU Type: Intel(R) Core(TM) i7-8700 CPU @ 3.20GHz
        Socket: Processors [Frequency] (Hyperthreaded Processor)
        0:       0 [3200.0] (  6 ),  1 [3200.0] (  7 ),  2 [3200.0] (  8 )
                 3 [3200.0] (  9 ),  4 [3200.0] ( 10 ),  5 [3200.0] ( 11 )
        
System load averages (1min, 5min, 15min) : 14.0 %, 6.9 %, 3.2 %
Hyperthreading is enabled
HPC is enabled


Simulating `input.scs' on it075891.wks.bris.ac.uk at 9:22:17 PM, Sat Apr 20, 2024 (process id: 237282).
Current working directory: /home/oj23092/VLSI_Design_Lab/Sim/lab2024/tb_ycircuit/adexl/results/data/Interactive.1/2/lab2024:tb_ycircuit:1/netlist
Command line:
     \
        /eda/cadence/2022-23/RHELx86/SPECTRE_21.10.751/tools.lnx86/bin/spectre  \
        -64 input.scs +escchars +log ../psf/spectre.out -format psfbin  \
        +rtsf -raw ../psf +aps +mt +lqtimeout 900 -maxw 5 -maxn 5  \
        +param /eda/cadence/ams/4.10/spectre/ams_range.lmts -env ade  \
        -ahdllibdir  \
        /home/oj23092/VLSI_Design_Lab/Sim/lab2024/tb_ycircuit/adexl/results/data/Interactive.1/sharedData/Job1/ahdl/input.ahdlSimDB  \
        +logstatus

Licensing Information:
[21:22:18.289666] Configured Lic search path (21.01-s002): 5280@ls-dc2-fen-p1.services.bris.ac.uk:5280@ls-dc2-fen-p0.services.bris.ac.uk

Licensing Information:
[21:22:18.508241] Periodic Lic check successful

Loading /eda/cadence/2022-23/RHELx86/SPECTRE_21.10.751/tools.lnx86/cmi/lib/64bit/5.0/libinfineon_sh.so ...
Loading /eda/cadence/2022-23/RHELx86/SPECTRE_21.10.751/tools.lnx86/cmi/lib/64bit/5.0/libphilips_o_sh.so ...
Loading /eda/cadence/2022-23/RHELx86/SPECTRE_21.10.751/tools.lnx86/cmi/lib/64bit/5.0/libphilips_sh.so ...
Loading /eda/cadence/2022-23/RHELx86/SPECTRE_21.10.751/tools.lnx86/cmi/lib/64bit/5.0/libsparam_sh.so ...
Loading /eda/cadence/2022-23/RHELx86/SPECTRE_21.10.751/tools.lnx86/cmi/lib/64bit/5.0/libstmodels_sh.so ...
Reading file:  /home/oj23092/VLSI_Design_Lab/Sim/lab2024/tb_ycircuit/adexl/results/data/Interactive.1/2/lab2024:tb_ycircuit:1/netlist/input.scs
Reading file:  /eda/cadence/ams/4.10/spectre/ams_range.lmts

Warning from spectre during read of parameter soft limits file `/eda/cadence/ams/4.10/spectre/ams_range.lmts', during circuit read-in.
    WARNING (SPECTRE-8360): line 1511: `ac' is an undefined primitive device.
    WARNING (SPECTRE-8360): line 1512: `ac' is an undefined primitive device.
    WARNING (SPECTRE-8360): line 1513: `ac' is an undefined primitive device.
    WARNING (SPECTRE-8360): line 1514: `ac' is an undefined primitive device.
    WARNING (SPECTRE-8360): line 1515: `ac' is an undefined primitive device.
        Further occurrences of this warning will be suppressed.

Reading file:  /eda/cadence/2022-23/RHELx86/SPECTRE_21.10.751/tools.lnx86/spectre/etc/configs/spectre.cfg
Reading file:  /eda/cadence/ams/4.10/spectre/c35/soac/soac.scs
Reading file:  /eda/cadence/ams/4.10/spectre/c35/soac/res.scs
Reading file:  /eda/cadence/ams/4.10/spectre/c35/soac/bip.scs
Reading file:  /eda/cadence/ams/4.10/spectre/c35/soac/cap.scs
Reading file:  /eda/cadence/ams/4.10/spectre/c35/soac/esddiode.scs
Reading file:  /eda/cadence/ams/4.10/spectre/c35/soac/ind.scs
Reading file:  /eda/cadence/ams/4.10/spectre/c35/soac/cmos53.scs
Reading file:  /eda/cadence/ams/4.10/spectre/c35/soac/processOption.scs
Reading file:  /eda/cadence/ams/4.10/spectre/c35/soac/process.scs
Reading file:  /eda/cadence/ams/4.10/spectre/c35/soac/soac.va

Warning from spectre during AHDL read-in.
    WARNING (VACOMP-2435): The environment variable CDS_AHDLCMI_ENABLE is no longer supported. Therefore, the simulator will use the default compiled C code flow.

Reading link:  /eda/cadence/2022-23/RHELx86/SPECTRE_21.10.751/tools.lnx86/spectre/etc/ahdl/constants.h
Reading file:  /eda/cadence/2022-23/RHELx86/SPECTRE_21.10.751/tools.lnx86/spectre/etc/ahdl/constants.vams
Reading link:  /eda/cadence/2022-23/RHELx86/SPECTRE_21.10.751/tools.lnx86/spectre/etc/ahdl/discipline.h
Reading file:  /eda/cadence/2022-23/RHELx86/SPECTRE_21.10.751/tools.lnx86/spectre/etc/ahdl/disciplines.vams
Reading file:  /eda/cadence/ams/4.10/spectre/c35/processOption/C35B4C3.scs
Time for NDB Parsing: CPU = 76.028 ms, elapsed = 585.274 ms.
Time accumulated: CPU = 132.147 ms, elapsed = 585.276 ms.
Peak resident memory used = 160 Mbytes.

TCP: opening server port it075891.wks.bris.ac.uk:57209
Existing shared object for module modp_ahdl is up to date.
Installed compiled interface for modp_ahdl.
Existing shared object for module modn_ahdl is up to date.
Installed compiled interface for modn_ahdl.
Time for Elaboration: CPU = 15.77 ms, elapsed = 17.03 ms.
Time accumulated: CPU = 147.981 ms, elapsed = 602.369 ms.
Peak resident memory used = 169 Mbytes.


Notice from spectre during hierarchy flattening.
    The value 'psf' specified for the 'checklimitdest' option will no longer be supported in future releases. Use 'spectre -h' to see other recommended values for the 'checklimitdest' option.


Time for EDB Visiting: CPU = 1.386 ms, elapsed = 1.827 ms.
Time accumulated: CPU = 149.431 ms, elapsed = 604.26 ms.
Peak resident memory used = 171 Mbytes.

Loading /eda/cadence/2022-23/RHELx86/SPECTRE_21.10.751/tools.lnx86/mdl/lib/64bit/libSpectreEH_sh.so ...

Warning from spectre during initial setup.
    WARNING (SPECTRE-16460): SOAC_cvarm_vspsub:Specified subcircuit master `cvarm' was not found.
    WARNING (SPECTRE-16462): SOAC_cvarm_vspsub:Error in specification of subcircuit master. Assert is ignored.
    WARNING (SPECTRE-16460): SOAC_cvarm_vbs:Specified subcircuit master `cvarm' was not found.
    WARNING (SPECTRE-16462): SOAC_cvarm_vbs:Error in specification of subcircuit master. Assert is ignored.
    WARNING (SPECTRE-16460): SOAC_cvarm_vgb:Specified subcircuit master `cvarm' was not found.
    WARNING (SPECTRE-16462): SOAC_cvarm_vgb:Error in specification of subcircuit master. Assert is ignored.
    WARNING (SPECTRE-16460): SOAC_cvart_vspsub:Specified subcircuit master `cvart' was not found.
    WARNING (SPECTRE-16462): SOAC_cvart_vspsub:Error in specification of subcircuit master. Assert is ignored.
    WARNING (SPECTRE-16460): SOAC_cvart_vbs:Specified subcircuit master `cvart' was not found.
        Further occurrences of this warning will be suppressed.
    WARNING (SPECTRE-16462): SOAC_cvart_vbs:Error in specification of subcircuit master. Assert is ignored.
        Further occurrences of this warning will be suppressed.
Notice from spectre during initial setup.
    Ignorevaref=yes is ignored since all nodes are connected to Verilog-A modules.
Notice from spectre during topology check.
    Only one connection to the following 8 nodes:
        I0.MPD.psub!
        I0.MPC.psub!
        I0.MPB.psub!
        I0.MPA.psub!
        I0.MNC.psub!
        Further occurrences of this notice will be suppressed.
Notice from spectre during initial setup.
    Multithreading is disabled due to the size of the design being too small.


Global user options:
         psfversion = 1.4.0
            vabstol = 1e-06
            iabstol = 1e-12
               temp = 27
           homotopy = 5
              limit = delta
         compatible = spice2
               gmin = 1e-12
             rforce = 1
           maxnotes = 5
           maxwarns = 5
             digits = 5
               cols = 80
             pivrel = 0.001
           sensfile = ../psf/sens.output
     checklimitdest = psf
     enable_pre_ver = yes
      ignorezerovar = yes
               save = allpub
             reltol = 0.0001
               tnom = 27
             scalem = 1
              scale = 1

Scoped user options:

Circuit inventory:
              nodes 17
            bsim3v3 8     
          capacitor 1     
          modn_ahdl 4     
          modp_ahdl 4     
            vsource 5     

Analysis and control statement inventory:
               info 7     
               tran 1     

Output statements:
             .probe 0     
           .measure 0     
               save 1     

Design checks inventory:
          paramtest 8     
             assert 175   


Notice from spectre during initial setup.
    APS enabled.
    1 notice suppressed.
    72 warnings suppressed.

Time for parsing: CPU = 5.489 ms, elapsed = 253.29 ms.
Time accumulated: CPU = 154.976 ms, elapsed = 857.605 ms.
Peak resident memory used = 176 Mbytes.

~~~~~~~~~~~~~~~~~~~~~~
Pre-Simulation Summary
~~~~~~~~~~~~~~~~~~~~~~
   -   (APS) Multi-threading. The recommended number of threads is 1, consider adding +mt=1 on command line.
~~~~~~~~~~~~~~~~~~~~~~

Notice from spectre during transient analysis `tran'.
    No checklimit analysis defined for asserts. A default checklimit analysis 'SpectreChecklimitAnal' has been created with all asserts enabled.


************************************************
Transient Analysis `tran': time = (0 s -> 20 ns)
************************************************

Notice from spectre during IC analysis, during transient analysis `tran'.
    GminDC = 1 pS is large enough to noticeably affect the DC solution.
        dV(I0.net3) = 3.36395 mV
        Use the `gmin_check' option to eliminate or expand this report.
Warning from spectre during check, during IC analysis, during transient analysis `tran'.
    WARNING (CMI-2943): Parameter checks have been ignored because the valid value for parameter 'trise' could not be found in 'C0'.

DC simulation time: CPU = 460 us, elapsed = 459.909 us.

Opening the PSF file ../psf/tran.tran.tran ...
Important parameter values:
    start = 0 s
    outputstart = 0 s
    stop = 20 ns
    step = 20 ps
    maxstep = 200 ps
    ic = all
    useprevic = no
    skipdc = no
    reltol = 10e-06
    abstol(V) = 1 uV
    abstol(I) = 1 pA
    temp = 27 C
    tnom = 27 C
    tempeffects = all
    errpreset = conservative
    method = gear2only
    lteratio = 10
    relref = alllocal
    cmin = 0 F
    gmin = 1 pS
    rabsshort = 1 mOhm


Notice from spectre during transient analysis `tran'.
    Multithreading is disabled due to the size of the design being too small.


Output and IC/nodeset summary:
                 save   5       (current)
                 save   17      (voltage)

    tran: time = 524.4 ps    (2.62 %), step = 25.76 ps     (129 m%)
    tran: time = 1.522 ns    (7.61 %), step = 27.37 ps     (137 m%)
    tran: time = 2.511 ns    (12.6 %), step = 28.9 ps      (144 m%)
    tran: time = 3.515 ns    (17.6 %), step = 31.59 ps     (158 m%)
    tran: time = 4.51 ns     (22.6 %), step = 17.82 ps    (89.1 m%)
    tran: time = 5.503 ns    (27.5 %), step = 14.85 ps    (74.3 m%)
SOAC: I0.MND.soac_m1       modn V(B,PSUB): LEAVING@  0.00500321us ;
SOAC: I0.MNA.soac_m1       modn V(B,PSUB): LEAVING@  0.00500882us ;
SOAC: I0.MNA.soac_m1       modn V(B,PSUB): ENTERING@ 0.00619451us duration:0.00119us ;
SOAC: I0.MND.soac_m1       modn V(B,PSUB): ENTERING@ 0.00619684us duration:0.00119us ;
    tran: time = 6.511 ns    (32.6 %), step = 15.98 ps    (79.9 m%)
    tran: time = 7.512 ns    (37.6 %), step = 35.6 ps      (178 m%)
    tran: time = 8.515 ns    (42.6 %), step = 15.97 ps    (79.9 m%)
    tran: time = 9.509 ns    (47.5 %), step = 11.22 ps    (56.1 m%)
SOAC: I0.MND.soac_m1       modn V(B,PSUB): LEAVING@  0.00900328us ;
SOAC: I0.MNA.soac_m1       modn V(B,PSUB): LEAVING@  0.00900896us ;
SOAC: I0.MNA.soac_m1       modn V(B,PSUB): ENTERING@ 0.0101746us duration:0.00117us ;
    tran: time = 10.5 ns     (52.5 %), step = 16.54 ps    (82.7 m%)
SOAC: I0.MND.soac_m1       modn V(B,PSUB): ENTERING@ 0.0113149us duration:0.00231us ;
    tran: time = 11.53 ns    (57.6 %), step = 40.03 ps     (200 m%)
    tran: time = 12.51 ns    (62.5 %), step = 18.02 ps    (90.1 m%)
SOAC: I0.MND.soac_m1       modn V(B,PSUB): LEAVING@  0.0122032us ;
    tran: time = 13.51 ns    (67.5 %), step = 25.47 ps     (127 m%)
    tran: time = 14.53 ns    (72.7 %), step = 35.47 ps     (177 m%)
SOAC: I0.MND.soac_m1       modn V(B,PSUB): ENTERING@ 0.0153204us duration:0.00312us ;
    tran: time = 15.53 ns    (77.7 %), step = 39.83 ps     (199 m%)
    tran: time = 16.51 ns    (82.5 %), step = 18.19 ps    (90.9 m%)
SOAC: I0.MND.soac_m1       modn V(B,PSUB): LEAVING@  0.0162033us ;
    tran: time = 17.51 ns    (87.6 %), step = 24.7 ps      (124 m%)
    tran: time = 18.53 ns    (92.7 %), step = 35.47 ps     (177 m%)
SOAC: I0.MND.soac_m1       modn V(B,PSUB): ENTERING@ 0.0193204us duration:0.00312us ;
    tran: time = 19.53 ns    (97.7 %), step = 39.83 ps     (199 m%)
Number of accepted tran steps =             2747

Maximum value achieved for any signal of each quantity: 
V: V(I0.net1) = 3.619 V
I: I(V:p) = 435.4 uA

~~~~~~~~~~~~~~~~~~~~~~~~~~~~~~~~~
Post-Transient Simulation Summary
~~~~~~~~~~~~~~~~~~~~~~~~~~~~~~~~~
   -   To further speed up simulation, consider
          add ++aps on command line
   -   Non-default settings that could significantly slow down simulation
          errpreset = conservative, default moderate
          reltol = 10e-06, default 100e-06 (conservative)
   -   Features that may significantly slowing down simulation
          asserts = 53.9534 ms
~~~~~~~~~~~~~~~~~~~~~~~~~~~~~~~~~


During simulation, the CPU load for active processors is :
         0 (2.6 %)       1 (4.4 %)       2 (1.8 %)       6 (1.8 %)
         8 (1.8 %)       9 (9.7 %)      10 (27.2 %)     11 (15.2 %)
        Total: 66.3%
Initial condition solution time: CPU = 480 us, elapsed = 482.082 us.
Intrinsic tran analysis time:    CPU = 284.026 ms, elapsed = 292.677 ms.
Total time required for tran analysis `tran': CPU = 286.91 ms, elapsed = 310.8 ms, util. = 92.3%.
Time accumulated: CPU = 446.341 ms, elapsed = 1.17977 s.
Peak resident memory used = 185 Mbytes.

finalTimeOP: writing operating point information to rawfile.

Opening the PSF file ../psf/finalTimeOP.info ...
modelParameter: writing model parameter values to rawfile.

Opening the PSF file ../psf/modelParameter.info ...
element: writing instance parameter values to rawfile.

Opening the PSF file ../psf/element.info ...
outputParameter: writing output parameter values to rawfile.

Opening the PSF file ../psf/outputParameter.info ...
designParamVals: writing netlist parameters to rawfile.

Opening the PSFASCII file ../psf/designParamVals.info ...
primitives: writing primitives to rawfile.

Opening the PSFASCII file ../psf/primitives.info.primitives ...
subckts: writing subcircuits to rawfile.

Opening the PSFASCII file ../psf/subckts.info.subckts ...
Licensing Information:
Lic Summary:
[21:22:19.195433] Cdslmd servers:5280@ls-dc2-fen-p1.services.bris.ac.uk:5280@ls-dc2-fen-p0.services.bris.ac.uk
[21:22:19.195451] Feature usage summary:
[21:22:19.195456] Virtuoso_Multi_mode_Simulation


Aggregate audit (9:22:19 PM, Sat Apr 20, 2024):
Time used: CPU = 458 ms, elapsed = 1.21 s, util. = 37.9%.
Time spent in licensing: elapsed = 764 ms, percentage of total = 63.1%.
Peak memory used = 187 Mbytes.
Simulation started at: 9:22:17 PM, Sat Apr 20, 2024, ended at: 9:22:19 PM, Sat Apr 20, 2024, with elapsed time (wall clock): 1.21 s.
spectre completes with 0 errors, 17 warnings, and 10 notices.
