
Spectre (R) Circuit Simulator
Version 21.1.0.751.isr19 64bit -- 22 May 2023
Copyright (C) 1989-2023 Cadence Design Systems, Inc. All rights reserved worldwide. Cadence and Spectre are registered trademarks of Cadence Design Systems, Inc. All others are the property of their respective holders.

Includes RSA BSAFE(R) Cryptographic or Security Protocol Software from RSA Security, Inc.

User: oj23092   Host: it075805.wks.bris.ac.uk   HostID: DE89579F   PID: 2252913
Memory  available: 7.1918 GB  physical: 16.2980 GB
Linux   : Rocky Linux release 8.9 (Green Obsidian)
CPU Type: Intel(R) Core(TM) i7-8700 CPU @ 3.20GHz
        Socket: Processors [Frequency] (Hyperthreaded Processor)
        0:       0 [4300.0] (  6 ),  1 [3200.0] (  7 ),  2 [4300.0] (  8 )
                 3 [3200.0] (  9 ),  4 [4300.0] ( 10 ),  5 [3200.0] ( 11 )
        
System load averages (1min, 5min, 15min) : 1.2 %, 2.3 %, 1.9 %
Hyperthreading is enabled
HPC is enabled


Simulating `input.scs' on it075805.wks.bris.ac.uk at 7:26:29 PM, Mon Apr 15, 2024 (process id: 2252913).
Current working directory: /home/oj23092/VLSI_Design_Lab/Sim/tb_xorc/spectre/schematic/netlist
Command line:
     \
        /eda/cadence/2022-23/RHELx86/SPECTRE_21.10.751/tools.lnx86/bin/spectre  \
        -64 input.scs +escchars +log ../psf/spectre.out -format psfbin  \
        +rtsf -raw ../psf +aps +mt +lqtimeout 900 -maxw 5 -maxn 5  \
        +param /eda/cadence/ams/4.10/spectre/ams_range.lmts -env ade

Licensing Information:
[19:26:29.289770] Configured Lic search path (21.01-s002): 5280@ls-dc2-fen-p1.services.bris.ac.uk:5280@ls-dc2-fen-p0.services.bris.ac.uk

Licensing Information:
[19:26:29.506377] Periodic Lic check successful

Loading /eda/cadence/2022-23/RHELx86/SPECTRE_21.10.751/tools.lnx86/cmi/lib/64bit/5.0/libinfineon_sh.so ...
Loading /eda/cadence/2022-23/RHELx86/SPECTRE_21.10.751/tools.lnx86/cmi/lib/64bit/5.0/libphilips_o_sh.so ...
Loading /eda/cadence/2022-23/RHELx86/SPECTRE_21.10.751/tools.lnx86/cmi/lib/64bit/5.0/libphilips_sh.so ...
Loading /eda/cadence/2022-23/RHELx86/SPECTRE_21.10.751/tools.lnx86/cmi/lib/64bit/5.0/libsparam_sh.so ...
Loading /eda/cadence/2022-23/RHELx86/SPECTRE_21.10.751/tools.lnx86/cmi/lib/64bit/5.0/libstmodels_sh.so ...
Reading file:  /home/oj23092/VLSI_Design_Lab/Sim/tb_xorc/spectre/schematic/netlist/input.scs
Reading file:  /eda/cadence/ams/4.10/spectre/ams_range.lmts

Warning from spectre during read of parameter soft limits file `/eda/cadence/ams/4.10/spectre/ams_range.lmts', during circuit read-in.
    WARNING (SPECTRE-8360): line 1511: `ac' is an undefined primitive device.
    WARNING (SPECTRE-8360): line 1512: `ac' is an undefined primitive device.
    WARNING (SPECTRE-8360): line 1513: `ac' is an undefined primitive device.
    WARNING (SPECTRE-8360): line 1514: `ac' is an undefined primitive device.
    WARNING (SPECTRE-8360): line 1515: `ac' is an undefined primitive device.
        Further occurrences of this warning will be suppressed.

Reading file:  /eda/cadence/2022-23/RHELx86/SPECTRE_21.10.751/tools.lnx86/spectre/etc/configs/spectre.cfg
Reading file:  /eda/cadence/ams/4.10/spectre/c35/soac/soac.scs
Reading file:  /eda/cadence/ams/4.10/spectre/c35/soac/processOption.scs
Reading file:  /eda/cadence/ams/4.10/spectre/c35/soac/process.scs
Reading file:  /eda/cadence/ams/4.10/spectre/c35/soac/soac.va

Warning from spectre during AHDL read-in.
    WARNING (VACOMP-2435): The environment variable CDS_AHDLCMI_ENABLE is no longer supported. Therefore, the simulator will use the default compiled C code flow.

Reading link:  /eda/cadence/2022-23/RHELx86/SPECTRE_21.10.751/tools.lnx86/spectre/etc/ahdl/constants.h
Reading file:  /eda/cadence/2022-23/RHELx86/SPECTRE_21.10.751/tools.lnx86/spectre/etc/ahdl/constants.vams
Reading link:  /eda/cadence/2022-23/RHELx86/SPECTRE_21.10.751/tools.lnx86/spectre/etc/ahdl/discipline.h
Reading file:  /eda/cadence/2022-23/RHELx86/SPECTRE_21.10.751/tools.lnx86/spectre/etc/ahdl/disciplines.vams
Reading file:  /eda/cadence/ams/4.10/spectre/c35/processOption/C35B4C3.scs
Reading file:  /eda/cadence/ams/4.10/spectre/c35/soac/cmos53.scs
Reading file:  /eda/cadence/ams/4.10/spectre/c35/soac/res.scs
Reading file:  /eda/cadence/ams/4.10/spectre/c35/soac/cap.scs
Reading file:  /eda/cadence/ams/4.10/spectre/c35/soac/bip.scs
Reading file:  /eda/cadence/ams/4.10/spectre/c35/soac/ind.scs
Reading file:  /eda/cadence/ams/4.10/spectre/c35/soac/esddiode.scs
Time for NDB Parsing: CPU = 80.532 ms, elapsed = 560.157 ms.
Time accumulated: CPU = 134.848 ms, elapsed = 560.159 ms.
Peak resident memory used = 155 Mbytes.

TCP: opening server port it075805.wks.bris.ac.uk:48201
Existing shared object for module modn_ahdl is up to date.
Installed compiled interface for modn_ahdl.
Existing shared object for module modp_ahdl is up to date.
Installed compiled interface for modp_ahdl.
Time for Elaboration: CPU = 16.529 ms, elapsed = 19.4991 ms.
Time accumulated: CPU = 151.444 ms, elapsed = 579.723 ms.
Peak resident memory used = 164 Mbytes.


Notice from spectre during hierarchy flattening.
    The value 'psf' specified for the 'checklimitdest' option will no longer be supported in future releases. Use 'spectre -h' to see other recommended values for the 'checklimitdest' option.


Time for EDB Visiting: CPU = 1.525 ms, elapsed = 1.92189 ms.
Time accumulated: CPU = 153.036 ms, elapsed = 581.711 ms.
Peak resident memory used = 166 Mbytes.

Loading /eda/cadence/2022-23/RHELx86/SPECTRE_21.10.751/tools.lnx86/mdl/lib/64bit/libSpectreEH_sh.so ...

Warning from spectre during initial setup.
    WARNING (SPECTRE-16460): SOAC_cvarm_vspsub:Specified subcircuit master `cvarm' was not found.
    WARNING (SPECTRE-16462): SOAC_cvarm_vspsub:Error in specification of subcircuit master. Assert is ignored.
    WARNING (SPECTRE-16460): SOAC_cvarm_vbs:Specified subcircuit master `cvarm' was not found.
    WARNING (SPECTRE-16462): SOAC_cvarm_vbs:Error in specification of subcircuit master. Assert is ignored.
    WARNING (SPECTRE-16460): SOAC_cvarm_vgb:Specified subcircuit master `cvarm' was not found.
    WARNING (SPECTRE-16462): SOAC_cvarm_vgb:Error in specification of subcircuit master. Assert is ignored.
    WARNING (SPECTRE-16460): SOAC_cvart_vspsub:Specified subcircuit master `cvart' was not found.
    WARNING (SPECTRE-16462): SOAC_cvart_vspsub:Error in specification of subcircuit master. Assert is ignored.
    WARNING (SPECTRE-16460): SOAC_cvart_vbs:Specified subcircuit master `cvart' was not found.
        Further occurrences of this warning will be suppressed.
    WARNING (SPECTRE-16462): SOAC_cvart_vbs:Error in specification of subcircuit master. Assert is ignored.
        Further occurrences of this warning will be suppressed.
Notice from spectre during initial setup.
    Ignorevaref=yes is ignored since all nodes are connected to Verilog-A modules.
Notice from spectre during topology check.
    Only one connection to the following 12 nodes:
        I0.I1.MN0.psub!
        I0.I1.MP0.psub!
        I0.I0.MN0.psub!
        I0.I0.MP0.psub!
        I0.MP3.psub!
        Further occurrences of this notice will be suppressed.
Notice from spectre during initial setup.
    Multithreading is disabled due to the size of the design being too small.


Global user options:
         psfversion = 1.4.0
            vabstol = 1e-06
            iabstol = 1e-12
               temp = 27
           homotopy = 5
              limit = delta
         compatible = spice2
               gmin = 1e-12
             rforce = 1
           maxnotes = 5
           maxwarns = 5
             digits = 5
               cols = 80
             pivrel = 0.001
           sensfile = ../psf/sens.output
     checklimitdest = psf
     enable_pre_ver = yes
      ignorezerovar = yes
               save = allpub
             reltol = 0.0001
               tnom = 27
             scalem = 1
              scale = 1

Scoped user options:

Circuit inventory:
              nodes 22
            bsim3v3 12    
          capacitor 1     
          modn_ahdl 6     
          modp_ahdl 6     
            vsource 3     

Analysis and control statement inventory:
               info 7     
               tran 1     

Output statements:
             .probe 0     
           .measure 0     
               save 0     

Design checks inventory:
          paramtest 12    
             assert 175   


Notice from spectre during initial setup.
    APS enabled.
    1 notice suppressed.
    72 warnings suppressed.

Time for parsing: CPU = 6.023 ms, elapsed = 234.329 ms.
Time accumulated: CPU = 159.13 ms, elapsed = 816.11 ms.
Peak resident memory used = 172 Mbytes.

~~~~~~~~~~~~~~~~~~~~~~
Pre-Simulation Summary
~~~~~~~~~~~~~~~~~~~~~~
   -   (APS) Multi-threading. The recommended number of threads is 1, consider adding +mt=1 on command line.
~~~~~~~~~~~~~~~~~~~~~~

Notice from spectre during transient analysis `tran'.
    No checklimit analysis defined for asserts. A default checklimit analysis 'SpectreChecklimitAnal' has been created with all asserts enabled.


************************************************
Transient Analysis `tran': time = (0 s -> 10 ns)
************************************************

Notice from spectre during IC analysis, during transient analysis `tran'.
    GminDC = 1 pS is large enough to noticeably affect the DC solution.
        dV(I0.net3) = 48.1905 mV
        Use the `gmin_check' option to eliminate or expand this report.
Warning from spectre during check, during IC analysis, during transient analysis `tran'.
    WARNING (CMI-2943): Parameter checks have been ignored because the valid value for parameter 'trise' could not be found in 'C0'.

DC simulation time: CPU = 537 us, elapsed = 541.21 us.

Opening the PSF file ../psf/tran.tran.tran ...
Important parameter values:
    start = 0 s
    outputstart = 0 s
    stop = 10 ns
    step = 10 ps
    maxstep = 100 ps
    ic = all
    useprevic = no
    skipdc = no
    reltol = 10e-06
    abstol(V) = 1 uV
    abstol(I) = 1 pA
    temp = 27 C
    tnom = 27 C
    tempeffects = all
    errpreset = conservative
    method = gear2only
    lteratio = 10
    relref = alllocal
    cmin = 0 F
    gmin = 1 pS
    rabsshort = 1 mOhm


Notice from spectre during transient analysis `tran'.
    Multithreading is disabled due to the size of the design being too small.


Output and IC/nodeset summary:
                 save   3       (current)
                 save   22      (voltage)

    tran: time = 251.8 ps    (2.52 %), step = 8.036 ps    (80.4 m%)
    tran: time = 779.8 ps     (7.8 %), step = 100 ps          (1 %)
SOAC: I0.MN0.soac_m1       modn V(B,PSUB): LEAVING@  7.80804e-05us ;
    tran: time = 1.252 ns    (12.5 %), step = 2.99 ps     (29.9 m%)
    tran: time = 1.765 ns    (17.6 %), step = 26.74 ps     (267 m%)
SOAC: I0.MN2.soac_m1       modn V(B,PSUB): LEAVING@  0.00110155us ;
SOAC: I0.MN2.soac_m1       modn V(B,PSUB): ENTERING@ 0.00218265us duration:0.00108us ;
    tran: time = 2.259 ns    (22.6 %), step = 9.405 ps    (94.1 m%)
    tran: time = 2.779 ns    (27.8 %), step = 100 ps          (1 %)
    tran: time = 3.252 ns    (32.5 %), step = 2.994 ps    (29.9 m%)
    tran: time = 3.758 ns    (37.6 %), step = 28.9 ps      (289 m%)
SOAC: I0.MN2.soac_m1       modn V(B,PSUB): LEAVING@  0.00310157us ;
SOAC: I0.MN2.soac_m1       modn V(B,PSUB): ENTERING@ 0.00418308us duration:0.00108us ;
    tran: time = 4.256 ns    (42.6 %), step = 9.133 ps    (91.3 m%)
    tran: time = 4.836 ns    (48.4 %), step = 100 ps          (1 %)
SOAC: I0.MN0.soac_m1       modn V(B,PSUB): ENTERING@ 0.00520151us duration:0.00512us ;
    tran: time = 5.251 ns    (52.5 %), step = 2.994 ps    (29.9 m%)
    tran: time = 5.761 ns    (57.6 %), step = 44.25 ps     (443 m%)
SOAC: I0.MN2.soac_m1       modn V(B,PSUB): LEAVING@  0.00510148us ;
SOAC: I0.MN2.soac_m1       modn V(B,PSUB): ENTERING@ 0.00624878us duration:0.00115us ;
    tran: time = 6.258 ns    (62.6 %), step = 9.395 ps    (93.9 m%)
    tran: time = 6.774 ns    (67.7 %), step = 45.67 ps     (457 m%)
    tran: time = 7.253 ns    (72.5 %), step = 3.195 ps    (31.9 m%)
    tran: time = 7.807 ns    (78.1 %), step = 78.09 ps     (781 m%)
SOAC: I0.MN2.soac_m1       modn V(B,PSUB): LEAVING@  0.00710157us ;
SOAC: I0.MN2.soac_m1       modn V(B,PSUB): ENTERING@ 0.00823189us duration:0.00113us ;
    tran: time = 8.255 ns    (82.5 %), step = 6.375 ps    (63.7 m%)
    tran: time = 8.763 ns    (87.6 %), step = 48.52 ps     (485 m%)
    tran: time = 9.25 ns     (92.5 %), step = 3.009 ps    (30.1 m%)
    tran: time = 9.819 ns    (98.2 %), step = 99.19 ps     (992 m%)
Number of accepted tran steps =             1357

Maximum value achieved for any signal of each quantity: 
V: V(I0.net4) = 3.484 V
I: I(V:p) = 674.5 uA

~~~~~~~~~~~~~~~~~~~~~~~~~~~~~~~~~
Post-Transient Simulation Summary
~~~~~~~~~~~~~~~~~~~~~~~~~~~~~~~~~
   -   To further speed up simulation, consider
          add ++aps on command line
   -   Non-default settings that could significantly slow down simulation
          errpreset = conservative, default moderate
          reltol = 10e-06, default 100e-06 (conservative)
   -   Features that may significantly slowing down simulation
          asserts = 48.4269 ms
~~~~~~~~~~~~~~~~~~~~~~~~~~~~~~~~~


During simulation, the CPU load for active processors is :
         0 (5.1 %)       1 (11.0 %)      2 (36.0 %)      3 (4.0 %)
         4 (6.9 %)       5 (8.1 %)       6 (6.0 %)       7 (5.1 %)
         8 (5.9 %)       9 (18.2 %)     10 (8.0 %)      11 (7.9 %)
        Total: 122.2%
Initial condition solution time: CPU = 559 us, elapsed = 562.906 us.
Intrinsic tran analysis time:    CPU = 184.903 ms, elapsed = 194.157 ms.
Total time required for tran analysis `tran': CPU = 187.785 ms, elapsed = 211.149 ms, util. = 88.9%.
Time accumulated: CPU = 351.834 ms, elapsed = 1.03648 s.
Peak resident memory used = 181 Mbytes.

finalTimeOP: writing operating point information to rawfile.

Opening the PSF file ../psf/finalTimeOP.info ...
modelParameter: writing model parameter values to rawfile.

Opening the PSF file ../psf/modelParameter.info ...
element: writing instance parameter values to rawfile.

Opening the PSF file ../psf/element.info ...
outputParameter: writing output parameter values to rawfile.

Opening the PSF file ../psf/outputParameter.info ...
designParamVals: writing netlist parameters to rawfile.

Opening the PSFASCII file ../psf/designParamVals.info ...
primitives: writing primitives to rawfile.

Opening the PSFASCII file ../psf/primitives.info.primitives ...
subckts: writing subcircuits to rawfile.

Opening the PSFASCII file ../psf/subckts.info.subckts ...
Licensing Information:
Lic Summary:
[19:26:30.081616] Cdslmd servers:5280@ls-dc2-fen-p1.services.bris.ac.uk:5280@ls-dc2-fen-p0.services.bris.ac.uk
[19:26:30.081634] Feature usage summary:
[19:26:30.081635] Virtuoso_Multi_mode_Simulation


Aggregate audit (7:26:30 PM, Mon Apr 15, 2024):
Time used: CPU = 363 ms, elapsed = 1.07 s, util. = 34.1%.
Time spent in licensing: elapsed = 751 ms, percentage of total = 70.5%.
Peak memory used = 183 Mbytes.
Simulation started at: 7:26:29 PM, Mon Apr 15, 2024, ended at: 7:26:30 PM, Mon Apr 15, 2024, with elapsed time (wall clock): 1.07 s.
spectre completes with 0 errors, 17 warnings, and 10 notices.
