
Spectre (R) Circuit Simulator
Version 21.1.0.751.isr19 64bit -- 22 May 2023
Copyright (C) 1989-2023 Cadence Design Systems, Inc. All rights reserved worldwide. Cadence and Spectre are registered trademarks of Cadence Design Systems, Inc. All others are the property of their respective holders.

Includes RSA BSAFE(R) Cryptographic or Security Protocol Software from RSA Security, Inc.

User: oj23092   Host: it075891.wks.bris.ac.uk   HostID: DE89A69F   PID: 228998
Memory  available: 13.3108 GB  physical: 16.2980 GB
Linux   : Rocky Linux release 8.9 (Green Obsidian)
CPU Type: Intel(R) Core(TM) i7-8700 CPU @ 3.20GHz
        Socket: Processors [Frequency] (Hyperthreaded Processor)
        0:       0 [3200.0] (  6 ),  1 [3200.0] (  7 ),  2 [3200.0] (  8 )
                 3 [3200.0] (  9 ),  4 [3200.0] ( 10 ),  5 [3200.0] ( 11 )
        
System load averages (1min, 5min, 15min) : 5.8 %, 2.6 %, 1.2 %
Hyperthreading is enabled
HPC is enabled


Simulating `input.scs' on it075891.wks.bris.ac.uk at 9:00:39 PM, Sat Apr 20, 2024 (process id: 228998).
Current working directory: /home/oj23092/VLSI_Design_Lab/Sim/lab2024/tb_ycircuit/adexl/results/data/Interactive.0/4/lab2024:tb_ycircuit:1/netlist
Command line:
     \
        /eda/cadence/2022-23/RHELx86/SPECTRE_21.10.751/tools.lnx86/bin/spectre  \
        -64 input.scs +escchars +log ../psf/spectre.out -format psfbin  \
        +rtsf -raw ../psf +aps +mt +lqtimeout 900 -maxw 5 -maxn 5  \
        +param /eda/cadence/ams/4.10/spectre/ams_range.lmts -env ade  \
        -ahdllibdir  \
        /home/oj23092/VLSI_Design_Lab/Sim/lab2024/tb_ycircuit/adexl/results/data/Interactive.0/sharedData/Job0/ahdl/input.ahdlSimDB  \
        +logstatus

Licensing Information:
[21:00:39.289658] Configured Lic search path (21.01-s002): 5280@ls-dc2-fen-p1.services.bris.ac.uk:5280@ls-dc2-fen-p0.services.bris.ac.uk

Licensing Information:
[21:00:39.139395] Periodic Lic check successful

Loading /eda/cadence/2022-23/RHELx86/SPECTRE_21.10.751/tools.lnx86/cmi/lib/64bit/5.0/libinfineon_sh.so ...
Loading /eda/cadence/2022-23/RHELx86/SPECTRE_21.10.751/tools.lnx86/cmi/lib/64bit/5.0/libphilips_o_sh.so ...
Loading /eda/cadence/2022-23/RHELx86/SPECTRE_21.10.751/tools.lnx86/cmi/lib/64bit/5.0/libphilips_sh.so ...
Loading /eda/cadence/2022-23/RHELx86/SPECTRE_21.10.751/tools.lnx86/cmi/lib/64bit/5.0/libsparam_sh.so ...
Loading /eda/cadence/2022-23/RHELx86/SPECTRE_21.10.751/tools.lnx86/cmi/lib/64bit/5.0/libstmodels_sh.so ...
Reading file:  /home/oj23092/VLSI_Design_Lab/Sim/lab2024/tb_ycircuit/adexl/results/data/Interactive.0/4/lab2024:tb_ycircuit:1/netlist/input.scs
Reading file:  /eda/cadence/ams/4.10/spectre/ams_range.lmts

Warning from spectre during read of parameter soft limits file `/eda/cadence/ams/4.10/spectre/ams_range.lmts', during circuit read-in.
    WARNING (SPECTRE-8360): line 1511: `ac' is an undefined primitive device.
    WARNING (SPECTRE-8360): line 1512: `ac' is an undefined primitive device.
    WARNING (SPECTRE-8360): line 1513: `ac' is an undefined primitive device.
    WARNING (SPECTRE-8360): line 1514: `ac' is an undefined primitive device.
    WARNING (SPECTRE-8360): line 1515: `ac' is an undefined primitive device.
        Further occurrences of this warning will be suppressed.

Reading file:  /eda/cadence/2022-23/RHELx86/SPECTRE_21.10.751/tools.lnx86/spectre/etc/configs/spectre.cfg
Reading file:  /eda/cadence/ams/4.10/spectre/c35/soac/soac.scs
Reading file:  /eda/cadence/ams/4.10/spectre/c35/soac/res.scs
Reading file:  /eda/cadence/ams/4.10/spectre/c35/soac/bip.scs
Reading file:  /eda/cadence/ams/4.10/spectre/c35/soac/cap.scs
Reading file:  /eda/cadence/ams/4.10/spectre/c35/soac/esddiode.scs
Reading file:  /eda/cadence/ams/4.10/spectre/c35/soac/ind.scs
Reading file:  /eda/cadence/ams/4.10/spectre/c35/soac/cmos53.scs
Reading file:  /eda/cadence/ams/4.10/spectre/c35/soac/processOption.scs
Reading file:  /eda/cadence/ams/4.10/spectre/c35/soac/process.scs
Reading file:  /eda/cadence/ams/4.10/spectre/c35/soac/soac.va

Warning from spectre during AHDL read-in.
    WARNING (VACOMP-2435): The environment variable CDS_AHDLCMI_ENABLE is no longer supported. Therefore, the simulator will use the default compiled C code flow.

Reading link:  /eda/cadence/2022-23/RHELx86/SPECTRE_21.10.751/tools.lnx86/spectre/etc/ahdl/constants.h
Reading file:  /eda/cadence/2022-23/RHELx86/SPECTRE_21.10.751/tools.lnx86/spectre/etc/ahdl/constants.vams
Reading link:  /eda/cadence/2022-23/RHELx86/SPECTRE_21.10.751/tools.lnx86/spectre/etc/ahdl/discipline.h
Reading file:  /eda/cadence/2022-23/RHELx86/SPECTRE_21.10.751/tools.lnx86/spectre/etc/ahdl/disciplines.vams
Reading file:  /eda/cadence/ams/4.10/spectre/c35/processOption/C35B4C3.scs
Time for NDB Parsing: CPU = 78.482 ms, elapsed = 302.549 ms.
Time accumulated: CPU = 135.38 ms, elapsed = 302.552 ms.
Peak resident memory used = 159 Mbytes.

TCP: opening server port it075891.wks.bris.ac.uk:50155
Existing shared object for module modp_ahdl is up to date.
Installed compiled interface for modp_ahdl.
Existing shared object for module modn_ahdl is up to date.
Installed compiled interface for modn_ahdl.
Time for Elaboration: CPU = 15.999 ms, elapsed = 17.211 ms.
Time accumulated: CPU = 151.441 ms, elapsed = 319.825 ms.
Peak resident memory used = 167 Mbytes.


Notice from spectre during hierarchy flattening.
    The value 'psf' specified for the 'checklimitdest' option will no longer be supported in future releases. Use 'spectre -h' to see other recommended values for the 'checklimitdest' option.


Time for EDB Visiting: CPU = 1.429 ms, elapsed = 1.81198 ms.
Time accumulated: CPU = 152.96 ms, elapsed = 321.729 ms.
Peak resident memory used = 169 Mbytes.

Loading /eda/cadence/2022-23/RHELx86/SPECTRE_21.10.751/tools.lnx86/mdl/lib/64bit/libSpectreEH_sh.so ...

Warning from spectre during initial setup.
    WARNING (SPECTRE-16460): SOAC_cvarm_vspsub:Specified subcircuit master `cvarm' was not found.
    WARNING (SPECTRE-16462): SOAC_cvarm_vspsub:Error in specification of subcircuit master. Assert is ignored.
    WARNING (SPECTRE-16460): SOAC_cvarm_vbs:Specified subcircuit master `cvarm' was not found.
    WARNING (SPECTRE-16462): SOAC_cvarm_vbs:Error in specification of subcircuit master. Assert is ignored.
    WARNING (SPECTRE-16460): SOAC_cvarm_vgb:Specified subcircuit master `cvarm' was not found.
    WARNING (SPECTRE-16462): SOAC_cvarm_vgb:Error in specification of subcircuit master. Assert is ignored.
    WARNING (SPECTRE-16460): SOAC_cvart_vspsub:Specified subcircuit master `cvart' was not found.
    WARNING (SPECTRE-16462): SOAC_cvart_vspsub:Error in specification of subcircuit master. Assert is ignored.
    WARNING (SPECTRE-16460): SOAC_cvart_vbs:Specified subcircuit master `cvart' was not found.
        Further occurrences of this warning will be suppressed.
    WARNING (SPECTRE-16462): SOAC_cvart_vbs:Error in specification of subcircuit master. Assert is ignored.
        Further occurrences of this warning will be suppressed.
Notice from spectre during initial setup.
    Ignorevaref=yes is ignored since all nodes are connected to Verilog-A modules.
Notice from spectre during topology check.
    Only one connection to the following 8 nodes:
        I0.MPD.psub!
        I0.MPC.psub!
        I0.MPB.psub!
        I0.MPA.psub!
        I0.MNC.psub!
        Further occurrences of this notice will be suppressed.
Notice from spectre during initial setup.
    Multithreading is disabled due to the size of the design being too small.


Global user options:
         psfversion = 1.4.0
            vabstol = 1e-06
            iabstol = 1e-12
               temp = 27
           homotopy = 5
              limit = delta
         compatible = spice2
               gmin = 1e-12
             rforce = 1
           maxnotes = 5
           maxwarns = 5
             digits = 5
               cols = 80
             pivrel = 0.001
           sensfile = ../psf/sens.output
     checklimitdest = psf
     enable_pre_ver = yes
      ignorezerovar = yes
               save = allpub
             reltol = 0.0001
               tnom = 27
             scalem = 1
              scale = 1

Scoped user options:

Circuit inventory:
              nodes 17
            bsim3v3 8     
          capacitor 1     
          modn_ahdl 4     
          modp_ahdl 4     
            vsource 5     

Analysis and control statement inventory:
               info 7     
               tran 1     

Output statements:
             .probe 0     
           .measure 0     
               save 1     

Design checks inventory:
          paramtest 8     
             assert 175   


Notice from spectre during initial setup.
    APS enabled.
    1 notice suppressed.
    72 warnings suppressed.

Time for parsing: CPU = 5.861 ms, elapsed = 258.871 ms.
Time accumulated: CPU = 158.917 ms, elapsed = 580.696 ms.
Peak resident memory used = 174 Mbytes.

~~~~~~~~~~~~~~~~~~~~~~
Pre-Simulation Summary
~~~~~~~~~~~~~~~~~~~~~~
   -   (APS) Multi-threading. The recommended number of threads is 1, consider adding +mt=1 on command line.
~~~~~~~~~~~~~~~~~~~~~~

Notice from spectre during transient analysis `tran'.
    No checklimit analysis defined for asserts. A default checklimit analysis 'SpectreChecklimitAnal' has been created with all asserts enabled.


************************************************
Transient Analysis `tran': time = (0 s -> 20 ns)
************************************************

Notice from spectre during IC analysis, during transient analysis `tran'.
    GminDC = 1 pS is large enough to noticeably affect the DC solution.
        dV(I0.net3) = 2.77053 mV
        Use the `gmin_check' option to eliminate or expand this report.
Warning from spectre during check, during IC analysis, during transient analysis `tran'.
    WARNING (CMI-2943): Parameter checks have been ignored because the valid value for parameter 'trise' could not be found in 'C0'.

DC simulation time: CPU = 722 us, elapsed = 722.17 us.

Opening the PSF file ../psf/tran.tran.tran ...
Important parameter values:
    start = 0 s
    outputstart = 0 s
    stop = 20 ns
    step = 20 ps
    maxstep = 200 ps
    ic = all
    useprevic = no
    skipdc = no
    reltol = 10e-06
    abstol(V) = 1 uV
    abstol(I) = 1 pA
    temp = 27 C
    tnom = 27 C
    tempeffects = all
    errpreset = conservative
    method = gear2only
    lteratio = 10
    relref = alllocal
    cmin = 0 F
    gmin = 1 pS
    rabsshort = 1 mOhm


Notice from spectre during transient analysis `tran'.
    Multithreading is disabled due to the size of the design being too small.


Output and IC/nodeset summary:
                 save   5       (current)
                 save   17      (voltage)

    tran: time = 518.8 ps    (2.59 %), step = 22.91 ps     (115 m%)
    tran: time = 1.505 ns    (7.52 %), step = 19.14 ps    (95.7 m%)
    tran: time = 2.503 ns    (12.5 %), step = 28.18 ps     (141 m%)
    tran: time = 3.521 ns    (17.6 %), step = 36.55 ps     (183 m%)
    tran: time = 4.513 ns    (22.6 %), step = 18.79 ps      (94 m%)
    tran: time = 5.516 ns    (27.6 %), step = 16.38 ps    (81.9 m%)
SOAC: I0.MND.soac_m1       modn V(B,PSUB): LEAVING@  0.00500324us ;
SOAC: I0.MNA.soac_m1       modn V(B,PSUB): LEAVING@  0.00500874us ;
SOAC: I0.MNA.soac_m1       modn V(B,PSUB): ENTERING@ 0.00619326us duration:0.00118us ;
SOAC: I0.MND.soac_m1       modn V(B,PSUB): ENTERING@ 0.00619496us duration:0.00119us ;
    tran: time = 6.503 ns    (32.5 %), step = 7.973 ps    (39.9 m%)
    tran: time = 7.52 ns     (37.6 %), step = 20.48 ps     (102 m%)
    tran: time = 8.51 ns     (42.5 %), step = 17.84 ps    (89.2 m%)
    tran: time = 9.515 ns    (47.6 %), step = 24.17 ps     (121 m%)
SOAC: I0.MND.soac_m1       modn V(B,PSUB): LEAVING@  0.00900314us ;
SOAC: I0.MNA.soac_m1       modn V(B,PSUB): LEAVING@  0.00900867us ;
SOAC: I0.MNA.soac_m1       modn V(B,PSUB): ENTERING@ 0.0101741us duration:0.00117us ;
SOAC: I0.MND.soac_m1       modn V(B,PSUB): ENTERING@ 0.0101997us duration:0.0012us ;
    tran: time = 10.5 ns     (52.5 %), step = 8.764 ps    (43.8 m%)
SOAC: I0.MND.soac_m1       modn V(B,PSUB): LEAVING@  0.0102003us ;
SOAC: I0.MND.soac_m1       modn V(B,PSUB): ENTERING@ 0.0113503us duration:0.00115us ;
    tran: time = 11.52 ns    (57.6 %), step = 26.96 ps     (135 m%)
    tran: time = 12.51 ns    (62.6 %), step = 14.52 ps    (72.6 m%)
SOAC: I0.MND.soac_m1       modn V(B,PSUB): LEAVING@  0.0122379us ;
    tran: time = 13.5 ns     (67.5 %), step = 27.39 ps     (137 m%)
    tran: time = 14.51 ns    (72.6 %), step = 38.96 ps     (195 m%)
SOAC: I0.MND.soac_m1       modn V(B,PSUB): ENTERING@ 0.0153569us duration:0.00312us ;
    tran: time = 15.51 ns    (77.5 %), step = 25.94 ps     (130 m%)
    tran: time = 16.51 ns    (82.6 %), step = 14.54 ps    (72.7 m%)
SOAC: I0.MND.soac_m1       modn V(B,PSUB): LEAVING@  0.016238us ;
    tran: time = 17.52 ns    (87.6 %), step = 28.2 ps      (141 m%)
    tran: time = 18.51 ns    (92.6 %), step = 38.96 ps     (195 m%)
SOAC: I0.MND.soac_m1       modn V(B,PSUB): ENTERING@ 0.0193569us duration:0.00312us ;
    tran: time = 19.51 ns    (97.5 %), step = 25.94 ps     (130 m%)
Number of accepted tran steps =             2732

Maximum value achieved for any signal of each quantity: 
V: V(I0.net1) = 3.658 V
I: I(V:p) = 280.3 uA

~~~~~~~~~~~~~~~~~~~~~~~~~~~~~~~~~
Post-Transient Simulation Summary
~~~~~~~~~~~~~~~~~~~~~~~~~~~~~~~~~
   -   To further speed up simulation, consider
          add ++aps on command line
   -   Non-default settings that could significantly slow down simulation
          errpreset = conservative, default moderate
          reltol = 10e-06, default 100e-06 (conservative)
   -   Features that may significantly slowing down simulation
          asserts = 55.8162 ms
~~~~~~~~~~~~~~~~~~~~~~~~~~~~~~~~~


During simulation, the CPU load for active processors is :
         0 (36.0 %)      1 (1.2 %)       2 (3.5 %)       3 (1.2 %)
         4 (5.8 %)       5 (2.3 %)       6 (12.8 %)      7 (19.8 %)
         9 (3.4 %)      11 (2.4 %)      
        Total: 88.4%
Initial condition solution time: CPU = 748 us, elapsed = 750.065 us.
Intrinsic tran analysis time:    CPU = 291.725 ms, elapsed = 301.539 ms.
Total time required for tran analysis `tran': CPU = 295.16 ms, elapsed = 320.848 ms, util. = 92%.
Time accumulated: CPU = 458.58 ms, elapsed = 913.001 ms.
Peak resident memory used = 183 Mbytes.

finalTimeOP: writing operating point information to rawfile.

Opening the PSF file ../psf/finalTimeOP.info ...
modelParameter: writing model parameter values to rawfile.

Opening the PSF file ../psf/modelParameter.info ...
element: writing instance parameter values to rawfile.

Opening the PSF file ../psf/element.info ...
outputParameter: writing output parameter values to rawfile.

Opening the PSF file ../psf/outputParameter.info ...
designParamVals: writing netlist parameters to rawfile.

Opening the PSFASCII file ../psf/designParamVals.info ...
primitives: writing primitives to rawfile.

Opening the PSFASCII file ../psf/primitives.info.primitives ...
subckts: writing subcircuits to rawfile.

Opening the PSFASCII file ../psf/subckts.info.subckts ...
Licensing Information:
Lic Summary:
[21:00:40.375944] Cdslmd servers:5280@ls-dc2-fen-p1.services.bris.ac.uk:5280@ls-dc2-fen-p0.services.bris.ac.uk
[21:00:40.375960] Feature usage summary:
[21:00:40.375961] Virtuoso_Multi_mode_Simulation


Aggregate audit (9:00:40 PM, Sat Apr 20, 2024):
Time used: CPU = 471 ms, elapsed = 944 ms, util. = 49.9%.
Time spent in licensing: elapsed = 161 ms, percentage of total = 17.1%.
Peak memory used = 185 Mbytes.
Simulation started at: 9:00:39 PM, Sat Apr 20, 2024, ended at: 9:00:40 PM, Sat Apr 20, 2024, with elapsed time (wall clock): 944 ms.
spectre completes with 0 errors, 17 warnings, and 10 notices.
