
Spectre (R) Circuit Simulator
Version 21.1.0.751.isr19 64bit -- 22 May 2023
Copyright (C) 1989-2023 Cadence Design Systems, Inc. All rights reserved worldwide. Cadence and Spectre are registered trademarks of Cadence Design Systems, Inc. All others are the property of their respective holders.

Includes RSA BSAFE(R) Cryptographic or Security Protocol Software from RSA Security, Inc.

User: oj23092   Host: it075891.wks.bris.ac.uk   HostID: DE89A69F   PID: 261698
Memory  available: 12.4057 GB  physical: 16.2980 GB
Linux   : Rocky Linux release 8.9 (Green Obsidian)
CPU Type: Intel(R) Core(TM) i7-8700 CPU @ 3.20GHz
        Socket: Processors [Frequency] (Hyperthreaded Processor)
        0:       0 [3200.0] (  6 ),  1 [4298.6] (  7 ),  2 [3200.0] (  8 )
                 3 [3200.0] (  9 ),  4 [3200.0] ( 10 ),  5 [4300.0] ( 11 )
        
System load averages (1min, 5min, 15min) : 8.5 %, 5.7 %, 3.7 %
Hyperthreading is enabled
HPC is enabled


Simulating `input.scs' on it075891.wks.bris.ac.uk at 10:37:13 PM, Sat Apr 20, 2024 (process id: 261698).
Current working directory: /home/oj23092/VLSI_Design_Lab/Sim/lab2024/tb_ycircuitcustom/adexl/results/data/MonteCarlo.6/1/lab2024:tb_ycircuitcustom:1/groupRunDataDir/netlist
Command line:
     \
        /eda/cadence/2022-23/RHELx86/SPECTRE_21.10.751/tools.lnx86/bin/spectre  \
        -64 input.scs +escchars +log ../psf/spectre.out -format psfbin  \
        +rtsf -raw ../psf +aps +mt +lqtimeout 900 -maxw 5 -maxn 5  \
        +param /eda/cadence/ams/4.10/spectre/ams_range.lmts -env ade  \
        -ahdllibdir  \
        /home/oj23092/VLSI_Design_Lab/Sim/lab2024/tb_ycircuitcustom/adexl/results/data/MonteCarlo.6/sharedData/Job3/ahdl/input.ahdlSimDB  \
        +logstatus

Licensing Information:
[22:37:13.289682] Configured Lic search path (21.01-s002): 5280@ls-dc2-fen-p1.services.bris.ac.uk:5280@ls-dc2-fen-p0.services.bris.ac.uk

Licensing Information:
[22:37:13.138459] Periodic Lic check successful

Loading /eda/cadence/2022-23/RHELx86/SPECTRE_21.10.751/tools.lnx86/cmi/lib/64bit/5.0/libinfineon_sh.so ...
Loading /eda/cadence/2022-23/RHELx86/SPECTRE_21.10.751/tools.lnx86/cmi/lib/64bit/5.0/libphilips_o_sh.so ...
Loading /eda/cadence/2022-23/RHELx86/SPECTRE_21.10.751/tools.lnx86/cmi/lib/64bit/5.0/libphilips_sh.so ...
Loading /eda/cadence/2022-23/RHELx86/SPECTRE_21.10.751/tools.lnx86/cmi/lib/64bit/5.0/libsparam_sh.so ...
Loading /eda/cadence/2022-23/RHELx86/SPECTRE_21.10.751/tools.lnx86/cmi/lib/64bit/5.0/libstmodels_sh.so ...
Reading file:  /home/oj23092/VLSI_Design_Lab/Sim/lab2024/tb_ycircuitcustom/adexl/results/data/MonteCarlo.6/1/lab2024:tb_ycircuitcustom:1/groupRunDataDir/netlist/input.scs
Reading file:  /eda/cadence/ams/4.10/spectre/ams_range.lmts

Warning from spectre during read of parameter soft limits file `/eda/cadence/ams/4.10/spectre/ams_range.lmts', during circuit read-in.
    WARNING (SPECTRE-8360): line 1511: `ac' is an undefined primitive device.
    WARNING (SPECTRE-8360): line 1512: `ac' is an undefined primitive device.
    WARNING (SPECTRE-8360): line 1513: `ac' is an undefined primitive device.
    WARNING (SPECTRE-8360): line 1514: `ac' is an undefined primitive device.
    WARNING (SPECTRE-8360): line 1515: `ac' is an undefined primitive device.
        Further occurrences of this warning will be suppressed.

Reading file:  /eda/cadence/2022-23/RHELx86/SPECTRE_21.10.751/tools.lnx86/spectre/etc/configs/spectre.cfg
Reading file:  /eda/cadence/ams/4.10/spectre/c35/soac/soac.scs
Reading file:  /eda/cadence/ams/4.10/spectre/c35/soac/processOption.scs
Reading file:  /eda/cadence/ams/4.10/spectre/c35/soac/process.scs
Reading file:  /eda/cadence/ams/4.10/spectre/c35/soac/soac.va

Warning from spectre during AHDL read-in.
    WARNING (VACOMP-2435): The environment variable CDS_AHDLCMI_ENABLE is no longer supported. Therefore, the simulator will use the default compiled C code flow.

Reading link:  /eda/cadence/2022-23/RHELx86/SPECTRE_21.10.751/tools.lnx86/spectre/etc/ahdl/constants.h
Reading file:  /eda/cadence/2022-23/RHELx86/SPECTRE_21.10.751/tools.lnx86/spectre/etc/ahdl/constants.vams
Reading link:  /eda/cadence/2022-23/RHELx86/SPECTRE_21.10.751/tools.lnx86/spectre/etc/ahdl/discipline.h
Reading file:  /eda/cadence/2022-23/RHELx86/SPECTRE_21.10.751/tools.lnx86/spectre/etc/ahdl/disciplines.vams
Reading file:  /eda/cadence/ams/4.10/spectre/c35/processOption/C35B4C3.scs
Reading file:  /eda/cadence/ams/4.10/spectre/c35/soac/cmos53.scs
Reading file:  /eda/cadence/ams/4.10/spectre/c35/soac/res.scs
Reading file:  /eda/cadence/ams/4.10/spectre/c35/soac/cap.scs
Reading file:  /eda/cadence/ams/4.10/spectre/c35/soac/bip.scs
Reading file:  /eda/cadence/ams/4.10/spectre/c35/soac/ind.scs
Reading file:  /eda/cadence/ams/4.10/spectre/c35/soac/esddiode.scs
Time for NDB Parsing: CPU = 71.177 ms, elapsed = 270.424 ms.
Time accumulated: CPU = 130.608 ms, elapsed = 270.426 ms.
Peak resident memory used = 167 Mbytes.

TCP: opening server port it075891.wks.bris.ac.uk:52627
Existing shared object for module modp_ahdl is up to date.
Installed compiled interface for modp_ahdl.
Existing shared object for module modn_ahdl is up to date.
Installed compiled interface for modn_ahdl.
Time for Elaboration: CPU = 20.518 ms, elapsed = 22.186 ms.
Time accumulated: CPU = 151.19 ms, elapsed = 292.675 ms.
Peak resident memory used = 176 Mbytes.


Notice from spectre during hierarchy flattening.
    The value 'psf' specified for the 'checklimitdest' option will no longer be supported in future releases. Use 'spectre -h' to see other recommended values for the 'checklimitdest' option.


Time for EDB Visiting: CPU = 1.456 ms, elapsed = 1.80197 ms.
Time accumulated: CPU = 152.723 ms, elapsed = 294.552 ms.
Peak resident memory used = 178 Mbytes.

Loading /eda/cadence/2022-23/RHELx86/SPECTRE_21.10.751/tools.lnx86/mdl/lib/64bit/libSpectreEH_sh.so ...

Warning from spectre during initial setup.
    WARNING (SPECTRE-16460): SOAC_cvarm_vspsub:Specified subcircuit master `cvarm' was not found.
    WARNING (SPECTRE-16462): SOAC_cvarm_vspsub:Error in specification of subcircuit master. Assert is ignored.
    WARNING (SPECTRE-16460): SOAC_cvarm_vbs:Specified subcircuit master `cvarm' was not found.
    WARNING (SPECTRE-16462): SOAC_cvarm_vbs:Error in specification of subcircuit master. Assert is ignored.
    WARNING (SPECTRE-16460): SOAC_cvarm_vgb:Specified subcircuit master `cvarm' was not found.
    WARNING (SPECTRE-16462): SOAC_cvarm_vgb:Error in specification of subcircuit master. Assert is ignored.
    WARNING (SPECTRE-16460): SOAC_cvart_vspsub:Specified subcircuit master `cvart' was not found.
    WARNING (SPECTRE-16462): SOAC_cvart_vspsub:Error in specification of subcircuit master. Assert is ignored.
    WARNING (SPECTRE-16460): SOAC_cvart_vbs:Specified subcircuit master `cvart' was not found.
        Further occurrences of this warning will be suppressed.
    WARNING (SPECTRE-16462): SOAC_cvart_vbs:Error in specification of subcircuit master. Assert is ignored.
        Further occurrences of this warning will be suppressed.
Notice from spectre during initial setup.
    Ignorevaref=yes is ignored since all nodes are connected to Verilog-A modules.
Notice from spectre during topology check.
    Only one connection to the following 8 nodes:
        I4.MPD.psub!
        I4.MPC.psub!
        I4.MPB.psub!
        I4.MPA.psub!
        I4.MNC.psub!
        Further occurrences of this notice will be suppressed.
Notice from spectre during initial setup.
    Multithreading is disabled due to the size of the design being too small.


Global user options:
         psfversion = 1.4.0
            vabstol = 1e-06
            iabstol = 1e-12
               temp = 27
           homotopy = 5
              limit = delta
         compatible = spice2
               gmin = 1e-12
             rforce = 1
           maxnotes = 5
           maxwarns = 5
             digits = 5
               cols = 80
             pivrel = 0.001
           sensfile = ../psf/sens.output
     checklimitdest = psf
     enable_pre_ver = yes
      ignorezerovar = yes
               save = allpub
             reltol = 0.0001
               tnom = 27
             scalem = 1
              scale = 1

Scoped user options:

Circuit inventory:
              nodes 17
            bsim3v3 8     
          capacitor 1     
          modn_ahdl 4     
          modp_ahdl 4     
            vsource 5     

Analysis and control statement inventory:
               info 7     
         montecarlo 1     
               tran 1     

Output statements:
             .probe 0     
           .measure 0     
               save 1     

Design checks inventory:
          paramtest 8     
             assert 175   


Notice from spectre during initial setup.
    APS enabled.
    1 notice suppressed.
    72 warnings suppressed.

Time for parsing: CPU = 5.825 ms, elapsed = 256.713 ms.
Time accumulated: CPU = 158.602 ms, elapsed = 551.319 ms.
Peak resident memory used = 184 Mbytes.

~~~~~~~~~~~~~~~~~~~~~~
Pre-Simulation Summary
~~~~~~~~~~~~~~~~~~~~~~
   -   (APS) Multi-threading. The recommended number of threads is 1, consider adding +mt=1 on command line.
~~~~~~~~~~~~~~~~~~~~~~

**************************************************
Monte Carlo Analysis `mc1': iteration = (1 -> 100)
**************************************************
Important parameter values:
    seed = 12345
    sampling = standard
    variations = all
    firstrun = 1
    numruns = 100
    nullmfactorcorrelation = no
    donominal = yes
    method = standard

**** Performing nominal run for `mc1'

Notice from spectre during transient analysis `tran', during Monte Carlo analysis `mc1'.
    No checklimit analysis defined for asserts. A default checklimit analysis 'SpectreChecklimitAnal' has been created with all asserts enabled.


************************************************
Transient Analysis `tran': time = (0 s -> 20 ns)
************************************************

Notice from spectre during IC analysis, during transient analysis `tran', during Monte Carlo analysis `mc1'.
    GminDC = 1 pS is large enough to noticeably affect the DC solution.
        dV(I4.net2) = 101.841 mV
        Use the `gmin_check' option to eliminate or expand this report.
Warning from spectre during check, during IC analysis, during transient analysis `tran', during Monte Carlo analysis `mc1'.
    WARNING (CMI-2943): Parameter checks have been ignored because the valid value for parameter 'trise' could not be found in 'C0'.

DC simulation time: CPU = 433 us, elapsed = 436.068 us.

Opening the PSF file ../psf/nom/tran.tran.tran ...
Important parameter values:
    start = 0 s
    outputstart = 0 s
    stop = 20 ns
    step = 20 ps
    maxstep = 200 ps
    ic = all
    useprevic = no
    skipdc = no
    reltol = 10e-06
    abstol(V) = 1 uV
    abstol(I) = 1 pA
    temp = 27 C
    tnom = 27 C
    tempeffects = all
    errpreset = conservative
    method = gear2only
    lteratio = 10
    relref = alllocal
    cmin = 0 F
    gmin = 1 pS
    rabsshort = 1 mOhm


Notice from spectre during transient analysis `tran', during Monte Carlo analysis `mc1'.
    Multithreading is disabled due to the size of the design being too small.


Output and IC/nodeset summary:
                 save   5       (current)
                 save   17      (voltage)

    tran: time = 509.1 ps    (2.55 %), step = 26.25 ps     (131 m%)
SOAC: I4.MND.soac_m1       modn V(B,PSUB): LEAVING@  0us ;
SOAC: I4.MND.soac_m1       modn V(B,PSUB): ENTERING@ 0.00117611us duration:0.00118us ;
    tran: time = 1.513 ns    (7.57 %), step = 18.07 ps    (90.3 m%)
    tran: time = 2.526 ns    (12.6 %), step = 27.43 ps     (137 m%)
    tran: time = 3.517 ns    (17.6 %), step = 25.42 ps     (127 m%)
SOAC: I4.MND.soac_m1       modn V(B,PSUB): LEAVING@  0.00310073us ;
    tran: time = 4.507 ns    (22.5 %), step = 48.63 ps     (243 m%)
SOAC: I4.MND.soac_m1       modn V(B,PSUB): ENTERING@ 0.0050251us duration:0.00192us ;
    tran: time = 5.502 ns    (27.5 %), step = 44.11 ps     (221 m%)
    tran: time = 6.508 ns    (32.5 %), step = 10.27 ps    (51.4 m%)
    tran: time = 7.523 ns    (37.6 %), step = 26 ps        (130 m%)
SOAC: I4.MND.soac_m1       modn V(B,PSUB): LEAVING@  0.00710072us ;
    tran: time = 8.508 ns    (42.5 %), step = 48.68 ps     (243 m%)
SOAC: I4.MND.soac_m1       modn V(B,PSUB): ENTERING@ 0.0090427us duration:0.00194us ;
    tran: time = 9.51 ns     (47.5 %), step = 33.26 ps     (166 m%)
    tran: time = 10.51 ns    (52.6 %), step = 24.01 ps     (120 m%)
    tran: time = 11.51 ns    (57.6 %), step = 15.88 ps    (79.4 m%)
    tran: time = 12.52 ns    (62.6 %), step = 61.72 ps     (309 m%)
SOAC: I4.MND.soac_m1       modn V(B,PSUB): LEAVING@  0.0120277us ;
SOAC: I4.MND.soac_m1       modn V(B,PSUB): ENTERING@ 0.0131118us duration:0.00108us ;
    tran: time = 13.54 ns    (67.7 %), step = 46.03 ps     (230 m%)
    tran: time = 14.52 ns    (72.6 %), step = 34.54 ps     (173 m%)
    tran: time = 15.51 ns    (77.5 %), step = 12.03 ps    (60.1 m%)
SOAC: I4.MND.soac_m1       modn V(B,PSUB): LEAVING@  0.0150041us ;
    tran: time = 16.51 ns    (82.6 %), step = 30.75 ps     (154 m%)
SOAC: I4.MND.soac_m1       modn V(B,PSUB): ENTERING@ 0.0171288us duration:0.00212us ;
    tran: time = 17.51 ns    (87.5 %), step = 64.26 ps     (321 m%)
    tran: time = 18.52 ns    (92.6 %), step = 34.53 ps     (173 m%)
    tran: time = 19.51 ns    (97.5 %), step = 27.81 ps     (139 m%)
Number of accepted tran steps =             2734

Maximum value achieved for any signal of each quantity: 
V: V(I4.net1) = 3.735 V
I: I(V:p) = 712.1 uA

~~~~~~~~~~~~~~~~~~~~~~~~~~~~~~~~~
Post-Transient Simulation Summary
~~~~~~~~~~~~~~~~~~~~~~~~~~~~~~~~~
   -   To further speed up simulation, consider
          add ++aps on command line
   -   Non-default settings that could significantly slow down simulation
          errpreset = conservative, default moderate
          reltol = 10e-06, default 100e-06 (conservative)
   -   Features that may significantly slowing down simulation
          asserts = 57.5333 ms
~~~~~~~~~~~~~~~~~~~~~~~~~~~~~~~~~


During simulation, the CPU load for active processors is :
         0 (45.2 %)      1 (13.3 %)      2 (5.9 %)       3 (4.7 %)
         4 (3.6 %)       5 (45.9 %)      6 (8.3 %)       7 (1.2 %)
        10 (1.2 %)      11 (4.8 %)      
        Total: 134.0%
Initial condition solution time: CPU = 454 us, elapsed = 458.002 us.
Intrinsic tran analysis time:    CPU = 294.321 ms, elapsed = 307.363 ms.
Total time required for tran analysis `tran': CPU = 297.261 ms, elapsed = 328.317 ms, util. = 90.5%.
Time accumulated: CPU = 460.512 ms, elapsed = 892.378 ms.
Peak resident memory used = 193 Mbytes.

finalTimeOP: writing operating point information to rawfile.

Opening the PSF file ../psf/nom/finalTimeOP.info ...
modelParameter: writing model parameter values to rawfile.

Opening the PSF file ../psf/nom/modelParameter.info ...
element: writing instance parameter values to rawfile.

Opening the PSF file ../psf/nom/element.info ...
outputParameter: writing output parameter values to rawfile.

Opening the PSF file ../psf/nom/outputParameter.info ...
designParamVals: writing netlist parameters to rawfile.

Opening the PSFASCII file ../psf/nom/designParamVals.info ...
primitives: writing primitives to rawfile.

Opening the PSFASCII file ../psf/nom/primitives.info.primitives ...
subckts: writing subcircuits to rawfile.

Opening the PSFASCII file ../psf/nom/subckts.info.subckts ...
Opening process scalar file:  /home/oj23092/VLSI_Design_Lab/Sim/lab2024/tb_ycircuitcustom/adexl/results/data/MonteCarlo.6/1/lab2024:tb_ycircuitcustom:1/groupRunDataDir/netlist/../psf/../monteCarlo/processData
Opening process param file:  /home/oj23092/VLSI_Design_Lab/Sim/lab2024/tb_ycircuitcustom/adexl/results/data/MonteCarlo.6/1/lab2024:tb_ycircuitcustom:1/groupRunDataDir/netlist/../psf/../monteCarlo/processParam
Opening process full param file:  /home/oj23092/VLSI_Design_Lab/Sim/lab2024/tb_ycircuitcustom/adexl/results/data/MonteCarlo.6/1/lab2024:tb_ycircuitcustom:1/groupRunDataDir/netlist/../psf/mc1.process_full.mcparam
Opening process correlation param file:  /home/oj23092/VLSI_Design_Lab/Sim/lab2024/tb_ycircuitcustom/adexl/results/data/MonteCarlo.6/1/lab2024:tb_ycircuitcustom:1/groupRunDataDir/netlist/../psf/mc1.process.correlate.mcparam
Opening mismatch full param file:  /home/oj23092/VLSI_Design_Lab/Sim/lab2024/tb_ycircuitcustom/adexl/results/data/MonteCarlo.6/1/lab2024:tb_ycircuitcustom:1/groupRunDataDir/netlist/../psf/mc1.mismatch_full.mcparam
Opening mismatch correlation param file:  /home/oj23092/VLSI_Design_Lab/Sim/lab2024/tb_ycircuitcustom/adexl/results/data/MonteCarlo.6/1/lab2024:tb_ycircuitcustom:1/groupRunDataDir/netlist/../psf/mc1.mismatch.correlate.mcparam
Opening iteration number and data-directory mapping file:  /home/oj23092/VLSI_Design_Lab/Sim/lab2024/tb_ycircuitcustom/adexl/results/data/MonteCarlo.6/1/lab2024:tb_ycircuitcustom:1/groupRunDataDir/netlist/../psf/mc1.mapping

Statistical parameters:
    Defined process parameters: 629
    Defined mismatch parameters (subckt based): 86
    Non-referenced mismatch parameters: 86
    Number of random variables: 629
    Gaussian truncation for process parameters: 4.00 sigma
    Gaussian truncation for mismatch parameters: 4.00 sigma


Opening the PSF file ../psf/mc1_tran.montecarlo ...

Opening the PSF file ../psf/mc1_finalTimeOP.montecarlo ...

Opening the PSF file ../psf/mc1_modelParameter.montecarlo ...

Opening the PSF file ../psf/mc1_element.montecarlo ...

Opening the PSF file ../psf/mc1_outputParameter.montecarlo ...

Opening the PSF file ../psf/mc1_designParamVals.montecarlo ...

Opening the PSF file ../psf/mc1_primitives.montecarlo ...

Opening the PSF file ../psf/mc1_subckts.montecarlo ...

**** Performing monte carlo loop for `mc1'

1              0.00% 

************************************************
Transient Analysis `tran': time = (0 s -> 20 ns)
************************************************

Opening the PSF file ../psf/mc1_separate/001/tran.tran.tran ...

Notice from spectre at iteration = 1 during IC analysis, during transient analysis `tran', during Monte Carlo analysis `mc1'.
    GminDC = 1 pS is large enough to noticeably affect the DC solution.
        dV(I4.net2) = 101.841 mV
        Use the `gmin_check' option to eliminate or expand this report.
Warning from spectre at iteration = 1 during check, during IC analysis, during transient analysis `tran', during Monte Carlo analysis `mc1'.
    WARNING (CMI-2943): Parameter checks have been ignored because the valid value for parameter 'trise' could not be found in 'C0'.

DC simulation time: CPU = 376 us, elapsed = 380.039 us.
Important parameter values:
    start = 0 s
    outputstart = 0 s
    stop = 20 ns
    step = 20 ps
    maxstep = 200 ps
    ic = all
    useprevic = no
    skipdc = no
    reltol = 10e-06
    abstol(V) = 1 uV
    abstol(I) = 1 pA
    temp = 27 C
    tnom = 27 C
    tempeffects = all
    errpreset = conservative
    method = gear2only
    lteratio = 10
    relref = alllocal
    cmin = 0 F
    gmin = 1 pS
    rabsshort = 1 mOhm


Notice from spectre at iteration = 1 during transient analysis `tran', during Monte Carlo analysis `mc1'.
    Multithreading is disabled due to the size of the design being too small.


Output and IC/nodeset summary:
                 save   5       (current)
                 save   17      (voltage)


Opening the PSF file ../psf/mc1_tranViolations.montecarlo ...
    tran: time = 509.1 ps    (2.55 %), step = 26.25 ps     (131 m%)
SOAC: I4.MND.soac_m1       modn V(B,PSUB): LEAVING@  0us ;
SOAC: I4.MND.soac_m1       modn V(B,PSUB): ENTERING@ 0.00117611us duration:0.00118us ;
    tran: time = 1.513 ns    (7.57 %), step = 18.07 ps    (90.3 m%)
    tran: time = 2.526 ns    (12.6 %), step = 27.43 ps     (137 m%)
    tran: time = 3.517 ns    (17.6 %), step = 25.42 ps     (127 m%)
SOAC: I4.MND.soac_m1       modn V(B,PSUB): LEAVING@  0.00310073us ;
    tran: time = 4.507 ns    (22.5 %), step = 48.63 ps     (243 m%)
SOAC: I4.MND.soac_m1       modn V(B,PSUB): ENTERING@ 0.0050251us duration:0.00192us ;
    tran: time = 5.502 ns    (27.5 %), step = 44.11 ps     (221 m%)
    tran: time = 6.508 ns    (32.5 %), step = 10.27 ps    (51.4 m%)
    tran: time = 7.523 ns    (37.6 %), step = 26 ps        (130 m%)
SOAC: I4.MND.soac_m1       modn V(B,PSUB): LEAVING@  0.00710072us ;
    tran: time = 8.508 ns    (42.5 %), step = 48.68 ps     (243 m%)
SOAC: I4.MND.soac_m1       modn V(B,PSUB): ENTERING@ 0.0090427us duration:0.00194us ;
    tran: time = 9.51 ns     (47.5 %), step = 33.26 ps     (166 m%)
    tran: time = 10.51 ns    (52.6 %), step = 24.01 ps     (120 m%)
    tran: time = 11.51 ns    (57.6 %), step = 15.88 ps    (79.4 m%)
    tran: time = 12.52 ns    (62.6 %), step = 61.72 ps     (309 m%)
SOAC: I4.MND.soac_m1       modn V(B,PSUB): LEAVING@  0.0120277us ;
SOAC: I4.MND.soac_m1       modn V(B,PSUB): ENTERING@ 0.0131118us duration:0.00108us ;
    tran: time = 13.54 ns    (67.7 %), step = 46.03 ps     (230 m%)
    tran: time = 14.52 ns    (72.6 %), step = 34.54 ps     (173 m%)
    tran: time = 15.51 ns    (77.5 %), step = 12.03 ps    (60.1 m%)
SOAC: I4.MND.soac_m1       modn V(B,PSUB): LEAVING@  0.0150041us ;
    tran: time = 16.51 ns    (82.6 %), step = 30.75 ps     (154 m%)
SOAC: I4.MND.soac_m1       modn V(B,PSUB): ENTERING@ 0.0171288us duration:0.00212us ;
    tran: time = 17.51 ns    (87.5 %), step = 64.26 ps     (321 m%)
    tran: time = 18.52 ns    (92.6 %), step = 34.53 ps     (173 m%)
    tran: time = 19.51 ns    (97.5 %), step = 27.81 ps     (139 m%)
Number of accepted tran steps =             2734

Maximum value achieved for any signal of each quantity: 
V: V(I4.net1) = 3.735 V
I: I(V:p) = 712.1 uA

~~~~~~~~~~~~~~~~~~~~~~~~~~~~~~~~~
Post-Transient Simulation Summary
~~~~~~~~~~~~~~~~~~~~~~~~~~~~~~~~~
   -   To further speed up simulation, consider
          add ++aps on command line
   -   Non-default settings that could significantly slow down simulation
          errpreset = conservative, default moderate
          reltol = 10e-06, default 100e-06 (conservative)
~~~~~~~~~~~~~~~~~~~~~~~~~~~~~~~~~


During simulation, the CPU load for active processors is :
         0 (34.2 %)      1 (9.2 %)       2 (4.2 %)       3 (5.8 %)
         4 (2.5 %)       5 (32.2 %)      6 (5.9 %)       9 (19.3 %)
        10 (1.7 %)      11 (4.2 %)      
        Total: 120.8%
Initial condition solution time: CPU = 393 us, elapsed = 396.967 us.
Intrinsic tran analysis time:    CPU = 249.268 ms, elapsed = 260.571 ms.
Total time required for tran analysis `tran': CPU = 251.063 ms, elapsed = 273.117 ms, util. = 91.9%.
Time accumulated: CPU = 740.357 ms, elapsed = 1.23974 s.
Peak resident memory used = 201 Mbytes.

finalTimeOP: writing operating point information to rawfile.

Opening the PSF file ../psf/mc1_separate/001/finalTimeOP.info ...
modelParameter: writing model parameter values to rawfile.

Opening the PSF file ../psf/mc1_separate/001/modelParameter.info ...
element: writing instance parameter values to rawfile.

Opening the PSF file ../psf/mc1_separate/001/element.info ...
outputParameter: writing output parameter values to rawfile.

Opening the PSF file ../psf/mc1_separate/001/outputParameter.info ...
designParamVals: writing netlist parameters to rawfile.

Opening the PSFASCII file ../psf/mc1_separate/001/designParamVals.info ...
primitives: writing primitives to rawfile.

Opening the PSFASCII file ../psf/mc1_separate/001/primitives.info.primitives ...
subckts: writing subcircuits to rawfile.

Opening the PSFASCII file ../psf/mc1_separate/001/subckts.info.subckts ...
2              1.01% 

************************************************
Transient Analysis `tran': time = (0 s -> 20 ns)
************************************************

Opening the PSF file ../psf/mc1_separate/002/tran.tran.tran ...

Notice from spectre during IC analysis, during transient analysis `tran', during Monte Carlo analysis `mc1'.
    GminDC = 1 pS is large enough to noticeably affect the DC solution.
        dV(I4.net2) = 101.841 mV
        Use the `gmin_check' option to eliminate or expand this report.
Warning from spectre during check, during IC analysis, during transient analysis `tran', during Monte Carlo analysis `mc1'.
    WARNING (CMI-2943): Parameter checks have been ignored because the valid value for parameter 'trise' could not be found in 'C0'.

DC simulation time: CPU = 354 us, elapsed = 354.052 us.
Important parameter values:
    start = 0 s
    outputstart = 0 s
    stop = 20 ns
    step = 20 ps
    maxstep = 200 ps
    ic = all
    useprevic = no
    skipdc = no
    reltol = 10e-06
    abstol(V) = 1 uV
    abstol(I) = 1 pA
    temp = 27 C
    tnom = 27 C
    tempeffects = all
    errpreset = conservative
    method = gear2only
    lteratio = 10
    relref = alllocal
    cmin = 0 F
    gmin = 1 pS
    rabsshort = 1 mOhm


Notice from spectre during transient analysis `tran', during Monte Carlo analysis `mc1'.
    Multithreading is disabled due to the size of the design being too small.


Output and IC/nodeset summary:
                 save   5       (current)
                 save   17      (voltage)

    tran: time = 509.1 ps    (2.55 %), step = 26.25 ps     (131 m%)
SOAC: I4.MND.soac_m1       modn V(B,PSUB): LEAVING@  0us ;
SOAC: I4.MND.soac_m1       modn V(B,PSUB): ENTERING@ 0.00117611us duration:0.00118us ;
    tran: time = 1.513 ns    (7.57 %), step = 18.07 ps    (90.3 m%)
    tran: time = 2.526 ns    (12.6 %), step = 27.43 ps     (137 m%)
    tran: time = 3.517 ns    (17.6 %), step = 25.42 ps     (127 m%)
SOAC: I4.MND.soac_m1       modn V(B,PSUB): LEAVING@  0.00310073us ;
    tran: time = 4.507 ns    (22.5 %), step = 48.63 ps     (243 m%)
SOAC: I4.MND.soac_m1       modn V(B,PSUB): ENTERING@ 0.0050251us duration:0.00192us ;
    tran: time = 5.502 ns    (27.5 %), step = 44.11 ps     (221 m%)
    tran: time = 6.508 ns    (32.5 %), step = 10.27 ps    (51.4 m%)
    tran: time = 7.523 ns    (37.6 %), step = 26 ps        (130 m%)
SOAC: I4.MND.soac_m1       modn V(B,PSUB): LEAVING@  0.00710072us ;
    tran: time = 8.508 ns    (42.5 %), step = 48.68 ps     (243 m%)
SOAC: I4.MND.soac_m1       modn V(B,PSUB): ENTERING@ 0.0090427us duration:0.00194us ;
    tran: time = 9.51 ns     (47.5 %), step = 33.26 ps     (166 m%)
    tran: time = 10.51 ns    (52.6 %), step = 24.01 ps     (120 m%)
    tran: time = 11.51 ns    (57.6 %), step = 15.88 ps    (79.4 m%)
    tran: time = 12.52 ns    (62.6 %), step = 61.72 ps     (309 m%)
SOAC: I4.MND.soac_m1       modn V(B,PSUB): LEAVING@  0.0120277us ;
SOAC: I4.MND.soac_m1       modn V(B,PSUB): ENTERING@ 0.0131118us duration:0.00108us ;
    tran: time = 13.54 ns    (67.7 %), step = 46.03 ps     (230 m%)
    tran: time = 14.52 ns    (72.6 %), step = 34.54 ps     (173 m%)
    tran: time = 15.51 ns    (77.5 %), step = 12.03 ps    (60.1 m%)
SOAC: I4.MND.soac_m1       modn V(B,PSUB): LEAVING@  0.0150041us ;
    tran: time = 16.51 ns    (82.6 %), step = 30.75 ps     (154 m%)
SOAC: I4.MND.soac_m1       modn V(B,PSUB): ENTERING@ 0.0171288us duration:0.00212us ;
    tran: time = 17.51 ns    (87.5 %), step = 64.26 ps     (321 m%)
    tran: time = 18.52 ns    (92.6 %), step = 34.53 ps     (173 m%)
    tran: time = 19.51 ns    (97.5 %), step = 27.81 ps     (139 m%)
Number of accepted tran steps =             2734

Maximum value achieved for any signal of each quantity: 
V: V(I4.net1) = 3.735 V
I: I(V:p) = 712.1 uA

~~~~~~~~~~~~~~~~~~~~~~~~~~~~~~~~~
Post-Transient Simulation Summary
~~~~~~~~~~~~~~~~~~~~~~~~~~~~~~~~~
   -   To further speed up simulation, consider
          add ++aps on command line
   -   Non-default settings that could significantly slow down simulation
          errpreset = conservative, default moderate
          reltol = 10e-06, default 100e-06 (conservative)
~~~~~~~~~~~~~~~~~~~~~~~~~~~~~~~~~


During simulation, the CPU load for active processors is :
         0 (27.2 %)      1 (7.3 %)       2 (3.3 %)       3 (4.6 %)
         4 (2.0 %)       5 (25.7 %)      6 (4.7 %)       9 (32.7 %)
        10 (1.3 %)      11 (3.3 %)      
        Total: 113.3%
Initial condition solution time: CPU = 371 us, elapsed = 371.218 us.
Intrinsic tran analysis time:    CPU = 248.205 ms, elapsed = 257.318 ms.
Total time required for tran analysis `tran': CPU = 249.899 ms, elapsed = 266.545 ms, util. = 93.8%.
Time accumulated: CPU = 1.00334 s, elapsed = 1.54945 s.
Peak resident memory used = 201 Mbytes.

finalTimeOP: writing operating point information to rawfile.

Opening the PSF file ../psf/mc1_separate/002/finalTimeOP.info ...
modelParameter: writing model parameter values to rawfile.

Opening the PSF file ../psf/mc1_separate/002/modelParameter.info ...
element: writing instance parameter values to rawfile.

Opening the PSF file ../psf/mc1_separate/002/element.info ...
outputParameter: writing output parameter values to rawfile.

Opening the PSF file ../psf/mc1_separate/002/outputParameter.info ...
designParamVals: writing netlist parameters to rawfile.

Opening the PSFASCII file ../psf/mc1_separate/002/designParamVals.info ...
primitives: writing primitives to rawfile.

Opening the PSFASCII file ../psf/mc1_separate/002/primitives.info.primitives ...
subckts: writing subcircuits to rawfile.

Opening the PSFASCII file ../psf/mc1_separate/002/subckts.info.subckts ...
3              2.02% 

************************************************
Transient Analysis `tran': time = (0 s -> 20 ns)
************************************************

Opening the PSF file ../psf/mc1_separate/003/tran.tran.tran ...

Notice from spectre during IC analysis, during transient analysis `tran', during Monte Carlo analysis `mc1'.
    GminDC = 1 pS is large enough to noticeably affect the DC solution.
        dV(I4.net2) = 101.841 mV
        Use the `gmin_check' option to eliminate or expand this report.
Warning from spectre during check, during IC analysis, during transient analysis `tran', during Monte Carlo analysis `mc1'.
    WARNING (CMI-2943): Parameter checks have been ignored because the valid value for parameter 'trise' could not be found in 'C0'.

DC simulation time: CPU = 373 us, elapsed = 375.032 us.
Important parameter values:
    start = 0 s
    outputstart = 0 s
    stop = 20 ns
    step = 20 ps
    maxstep = 200 ps
    ic = all
    useprevic = no
    skipdc = no
    reltol = 10e-06
    abstol(V) = 1 uV
    abstol(I) = 1 pA
    temp = 27 C
    tnom = 27 C
    tempeffects = all
    errpreset = conservative
    method = gear2only
    lteratio = 10
    relref = alllocal
    cmin = 0 F
    gmin = 1 pS
    rabsshort = 1 mOhm


Notice from spectre during transient analysis `tran', during Monte Carlo analysis `mc1'.
    Multithreading is disabled due to the size of the design being too small.


Output and IC/nodeset summary:
                 save   5       (current)
                 save   17      (voltage)

    tran: time = 509.1 ps    (2.55 %), step = 26.25 ps     (131 m%)
SOAC: I4.MND.soac_m1       modn V(B,PSUB): LEAVING@  0us ;
SOAC: I4.MND.soac_m1       modn V(B,PSUB): ENTERING@ 0.00117611us duration:0.00118us ;
    tran: time = 1.513 ns    (7.57 %), step = 18.07 ps    (90.3 m%)
    tran: time = 2.526 ns    (12.6 %), step = 27.43 ps     (137 m%)
    tran: time = 3.517 ns    (17.6 %), step = 25.42 ps     (127 m%)
SOAC: I4.MND.soac_m1       modn V(B,PSUB): LEAVING@  0.00310073us ;
    tran: time = 4.507 ns    (22.5 %), step = 48.63 ps     (243 m%)
SOAC: I4.MND.soac_m1       modn V(B,PSUB): ENTERING@ 0.0050251us duration:0.00192us ;
    tran: time = 5.502 ns    (27.5 %), step = 44.11 ps     (221 m%)
    tran: time = 6.508 ns    (32.5 %), step = 10.27 ps    (51.4 m%)
    tran: time = 7.523 ns    (37.6 %), step = 26 ps        (130 m%)
SOAC: I4.MND.soac_m1       modn V(B,PSUB): LEAVING@  0.00710072us ;
    tran: time = 8.508 ns    (42.5 %), step = 48.68 ps     (243 m%)
SOAC: I4.MND.soac_m1       modn V(B,PSUB): ENTERING@ 0.0090427us duration:0.00194us ;
    tran: time = 9.51 ns     (47.5 %), step = 33.26 ps     (166 m%)
    tran: time = 10.51 ns    (52.6 %), step = 24.01 ps     (120 m%)
    tran: time = 11.51 ns    (57.6 %), step = 15.88 ps    (79.4 m%)
    tran: time = 12.52 ns    (62.6 %), step = 61.72 ps     (309 m%)
SOAC: I4.MND.soac_m1       modn V(B,PSUB): LEAVING@  0.0120277us ;
SOAC: I4.MND.soac_m1       modn V(B,PSUB): ENTERING@ 0.0131118us duration:0.00108us ;
    tran: time = 13.54 ns    (67.7 %), step = 46.03 ps     (230 m%)
    tran: time = 14.52 ns    (72.6 %), step = 34.54 ps     (173 m%)
    tran: time = 15.51 ns    (77.5 %), step = 12.03 ps    (60.1 m%)
SOAC: I4.MND.soac_m1       modn V(B,PSUB): LEAVING@  0.0150041us ;
    tran: time = 16.51 ns    (82.6 %), step = 30.75 ps     (154 m%)
SOAC: I4.MND.soac_m1       modn V(B,PSUB): ENTERING@ 0.0171288us duration:0.00212us ;
    tran: time = 17.51 ns    (87.5 %), step = 64.26 ps     (321 m%)
    tran: time = 18.52 ns    (92.6 %), step = 34.53 ps     (173 m%)
    tran: time = 19.51 ns    (97.5 %), step = 27.81 ps     (139 m%)
Number of accepted tran steps =             2734

Maximum value achieved for any signal of each quantity: 
V: V(I4.net1) = 3.735 V
I: I(V:p) = 712.1 uA

~~~~~~~~~~~~~~~~~~~~~~~~~~~~~~~~~
Post-Transient Simulation Summary
~~~~~~~~~~~~~~~~~~~~~~~~~~~~~~~~~
   -   To further speed up simulation, consider
          add ++aps on command line
   -   Non-default settings that could significantly slow down simulation
          errpreset = conservative, default moderate
          reltol = 10e-06, default 100e-06 (conservative)
~~~~~~~~~~~~~~~~~~~~~~~~~~~~~~~~~


During simulation, the CPU load for active processors is :
         0 (22.5 %)      1 (6.1 %)       2 (2.7 %)       3 (3.8 %)
         4 (2.2 %)       5 (21.3 %)      6 (3.8 %)       9 (41.8 %)
        10 (1.1 %)      11 (2.8 %)      
        Total: 109.2%
Initial condition solution time: CPU = 389 us, elapsed = 391.96 us.
Intrinsic tran analysis time:    CPU = 249.958 ms, elapsed = 259.141 ms.
Total time required for tran analysis `tran': CPU = 251.546 ms, elapsed = 269.112 ms, util. = 93.5%.
Time accumulated: CPU = 1.26801 s, elapsed = 1.86173 s.
Peak resident memory used = 201 Mbytes.

finalTimeOP: writing operating point information to rawfile.

Opening the PSF file ../psf/mc1_separate/003/finalTimeOP.info ...
modelParameter: writing model parameter values to rawfile.

Opening the PSF file ../psf/mc1_separate/003/modelParameter.info ...
element: writing instance parameter values to rawfile.

Opening the PSF file ../psf/mc1_separate/003/element.info ...
outputParameter: writing output parameter values to rawfile.

Opening the PSF file ../psf/mc1_separate/003/outputParameter.info ...
designParamVals: writing netlist parameters to rawfile.

Opening the PSFASCII file ../psf/mc1_separate/003/designParamVals.info ...
primitives: writing primitives to rawfile.

Opening the PSFASCII file ../psf/mc1_separate/003/primitives.info.primitives ...
subckts: writing subcircuits to rawfile.

Opening the PSFASCII file ../psf/mc1_separate/003/subckts.info.subckts ...
4              3.03% 

************************************************
Transient Analysis `tran': time = (0 s -> 20 ns)
************************************************

Opening the PSF file ../psf/mc1_separate/004/tran.tran.tran ...

Notice from spectre during IC analysis, during transient analysis `tran', during Monte Carlo analysis `mc1'.
    GminDC = 1 pS is large enough to noticeably affect the DC solution.
        dV(I4.net2) = 101.841 mV
        Use the `gmin_check' option to eliminate or expand this report.
Warning from spectre during check, during IC analysis, during transient analysis `tran', during Monte Carlo analysis `mc1'.
    WARNING (CMI-2943): Parameter checks have been ignored because the valid value for parameter 'trise' could not be found in 'C0'.

DC simulation time: CPU = 346 us, elapsed = 345.945 us.
Important parameter values:
    start = 0 s
    outputstart = 0 s
    stop = 20 ns
    step = 20 ps
    maxstep = 200 ps
    ic = all
    useprevic = no
    skipdc = no
    reltol = 10e-06
    abstol(V) = 1 uV
    abstol(I) = 1 pA
    temp = 27 C
    tnom = 27 C
    tempeffects = all
    errpreset = conservative
    method = gear2only
    lteratio = 10
    relref = alllocal
    cmin = 0 F
    gmin = 1 pS
    rabsshort = 1 mOhm


Notice from spectre during transient analysis `tran', during Monte Carlo analysis `mc1'.
    Multithreading is disabled due to the size of the design being too small.


Output and IC/nodeset summary:
                 save   5       (current)
                 save   17      (voltage)

    tran: time = 509.1 ps    (2.55 %), step = 26.25 ps     (131 m%)
SOAC: I4.MND.soac_m1       modn V(B,PSUB): LEAVING@  0us ;
SOAC: I4.MND.soac_m1       modn V(B,PSUB): ENTERING@ 0.00117611us duration:0.00118us ;
    tran: time = 1.513 ns    (7.57 %), step = 18.07 ps    (90.3 m%)
    tran: time = 2.526 ns    (12.6 %), step = 27.43 ps     (137 m%)
    tran: time = 3.517 ns    (17.6 %), step = 25.42 ps     (127 m%)
SOAC: I4.MND.soac_m1       modn V(B,PSUB): LEAVING@  0.00310073us ;
    tran: time = 4.507 ns    (22.5 %), step = 48.63 ps     (243 m%)
SOAC: I4.MND.soac_m1       modn V(B,PSUB): ENTERING@ 0.0050251us duration:0.00192us ;
    tran: time = 5.502 ns    (27.5 %), step = 44.11 ps     (221 m%)
    tran: time = 6.508 ns    (32.5 %), step = 10.27 ps    (51.4 m%)
    tran: time = 7.523 ns    (37.6 %), step = 26 ps        (130 m%)
SOAC: I4.MND.soac_m1       modn V(B,PSUB): LEAVING@  0.00710072us ;
    tran: time = 8.508 ns    (42.5 %), step = 48.68 ps     (243 m%)
SOAC: I4.MND.soac_m1       modn V(B,PSUB): ENTERING@ 0.0090427us duration:0.00194us ;
    tran: time = 9.51 ns     (47.5 %), step = 33.26 ps     (166 m%)
    tran: time = 10.51 ns    (52.6 %), step = 24.01 ps     (120 m%)
    tran: time = 11.51 ns    (57.6 %), step = 15.88 ps    (79.4 m%)
    tran: time = 12.52 ns    (62.6 %), step = 61.72 ps     (309 m%)
SOAC: I4.MND.soac_m1       modn V(B,PSUB): LEAVING@  0.0120277us ;
SOAC: I4.MND.soac_m1       modn V(B,PSUB): ENTERING@ 0.0131118us duration:0.00108us ;
    tran: time = 13.54 ns    (67.7 %), step = 46.03 ps     (230 m%)
    tran: time = 14.52 ns    (72.6 %), step = 34.54 ps     (173 m%)
    tran: time = 15.51 ns    (77.5 %), step = 12.03 ps    (60.1 m%)
SOAC: I4.MND.soac_m1       modn V(B,PSUB): LEAVING@  0.0150041us ;
    tran: time = 16.51 ns    (82.6 %), step = 30.75 ps     (154 m%)
SOAC: I4.MND.soac_m1       modn V(B,PSUB): ENTERING@ 0.0171288us duration:0.00212us ;
    tran: time = 17.51 ns    (87.5 %), step = 64.26 ps     (321 m%)
    tran: time = 18.52 ns    (92.6 %), step = 34.53 ps     (173 m%)
    tran: time = 19.51 ns    (97.5 %), step = 27.81 ps     (139 m%)
Number of accepted tran steps =             2734

Maximum value achieved for any signal of each quantity: 
V: V(I4.net1) = 3.735 V
I: I(V:p) = 712.1 uA

~~~~~~~~~~~~~~~~~~~~~~~~~~~~~~~~~
Post-Transient Simulation Summary
~~~~~~~~~~~~~~~~~~~~~~~~~~~~~~~~~
   -   To further speed up simulation, consider
          add ++aps on command line
   -   Non-default settings that could significantly slow down simulation
          errpreset = conservative, default moderate
          reltol = 10e-06, default 100e-06 (conservative)
~~~~~~~~~~~~~~~~~~~~~~~~~~~~~~~~~


During simulation, the CPU load for active processors is :
         0 (19.1 %)      1 (5.6 %)       2 (2.8 %)       3 (4.1 %)
         4 (6.0 %)       5 (18.9 %)      6 (3.7 %)       8 (1.4 %)
         9 (48.6 %)     11 (4.2 %)      
        Total: 116.3%
Initial condition solution time: CPU = 362 us, elapsed = 363.111 us.
Intrinsic tran analysis time:    CPU = 266.502 ms, elapsed = 275.879 ms.
Total time required for tran analysis `tran': CPU = 268.077 ms, elapsed = 283.648 ms, util. = 94.5%.
Time accumulated: CPU = 1.54858 s, elapsed = 2.18995 s.
Peak resident memory used = 201 Mbytes.

finalTimeOP: writing operating point information to rawfile.

Opening the PSF file ../psf/mc1_separate/004/finalTimeOP.info ...
modelParameter: writing model parameter values to rawfile.

Opening the PSF file ../psf/mc1_separate/004/modelParameter.info ...
element: writing instance parameter values to rawfile.

Opening the PSF file ../psf/mc1_separate/004/element.info ...
outputParameter: writing output parameter values to rawfile.

Opening the PSF file ../psf/mc1_separate/004/outputParameter.info ...
designParamVals: writing netlist parameters to rawfile.

Opening the PSFASCII file ../psf/mc1_separate/004/designParamVals.info ...
primitives: writing primitives to rawfile.

Opening the PSFASCII file ../psf/mc1_separate/004/primitives.info.primitives ...
subckts: writing subcircuits to rawfile.

Opening the PSFASCII file ../psf/mc1_separate/004/subckts.info.subckts ...
    mc1: iteration = 4           (3.03 %), step = 1            (1.01 %)
5              4.04% 

************************************************
Transient Analysis `tran': time = (0 s -> 20 ns)
************************************************

Opening the PSF file ../psf/mc1_separate/005/tran.tran.tran ...

Notice from spectre during IC analysis, during transient analysis `tran', during Monte Carlo analysis `mc1'.
    GminDC = 1 pS is large enough to noticeably affect the DC solution.
        dV(I4.net2) = 101.841 mV
        Use the `gmin_check' option to eliminate or expand this report.
Warning from spectre during check, during IC analysis, during transient analysis `tran', during Monte Carlo analysis `mc1'.
    WARNING (CMI-2943): Parameter checks have been ignored because the valid value for parameter 'trise' could not be found in 'C0'.

DC simulation time: CPU = 447 us, elapsed = 450.85 us.
Important parameter values:
    start = 0 s
    outputstart = 0 s
    stop = 20 ns
    step = 20 ps
    maxstep = 200 ps
    ic = all
    useprevic = no
    skipdc = no
    reltol = 10e-06
    abstol(V) = 1 uV
    abstol(I) = 1 pA
    temp = 27 C
    tnom = 27 C
    tempeffects = all
    errpreset = conservative
    method = gear2only
    lteratio = 10
    relref = alllocal
    cmin = 0 F
    gmin = 1 pS
    rabsshort = 1 mOhm


Notice from spectre during transient analysis `tran', during Monte Carlo analysis `mc1'.
    Multithreading is disabled due to the size of the design being too small.


Output and IC/nodeset summary:
                 save   5       (current)
                 save   17      (voltage)

    tran: time = 509.1 ps    (2.55 %), step = 26.25 ps     (131 m%)
SOAC: I4.MND.soac_m1       modn V(B,PSUB): LEAVING@  0us ;
SOAC: I4.MND.soac_m1       modn V(B,PSUB): ENTERING@ 0.00117611us duration:0.00118us ;
    tran: time = 1.513 ns    (7.57 %), step = 18.07 ps    (90.3 m%)
    tran: time = 2.526 ns    (12.6 %), step = 27.43 ps     (137 m%)
    tran: time = 3.517 ns    (17.6 %), step = 25.42 ps     (127 m%)
SOAC: I4.MND.soac_m1       modn V(B,PSUB): LEAVING@  0.00310073us ;
    tran: time = 4.507 ns    (22.5 %), step = 48.63 ps     (243 m%)
SOAC: I4.MND.soac_m1       modn V(B,PSUB): ENTERING@ 0.0050251us duration:0.00192us ;
    tran: time = 5.502 ns    (27.5 %), step = 44.11 ps     (221 m%)
    tran: time = 6.508 ns    (32.5 %), step = 10.27 ps    (51.4 m%)
    tran: time = 7.523 ns    (37.6 %), step = 26 ps        (130 m%)
SOAC: I4.MND.soac_m1       modn V(B,PSUB): LEAVING@  0.00710072us ;
    tran: time = 8.508 ns    (42.5 %), step = 48.68 ps     (243 m%)
SOAC: I4.MND.soac_m1       modn V(B,PSUB): ENTERING@ 0.0090427us duration:0.00194us ;
    tran: time = 9.51 ns     (47.5 %), step = 33.26 ps     (166 m%)
    tran: time = 10.51 ns    (52.6 %), step = 24.01 ps     (120 m%)
    tran: time = 11.51 ns    (57.6 %), step = 15.88 ps    (79.4 m%)
    tran: time = 12.52 ns    (62.6 %), step = 61.72 ps     (309 m%)
SOAC: I4.MND.soac_m1       modn V(B,PSUB): LEAVING@  0.0120277us ;
SOAC: I4.MND.soac_m1       modn V(B,PSUB): ENTERING@ 0.0131118us duration:0.00108us ;
    tran: time = 13.54 ns    (67.7 %), step = 46.03 ps     (230 m%)
    tran: time = 14.52 ns    (72.6 %), step = 34.54 ps     (173 m%)
    tran: time = 15.51 ns    (77.5 %), step = 12.03 ps    (60.1 m%)
SOAC: I4.MND.soac_m1       modn V(B,PSUB): LEAVING@  0.0150041us ;
    tran: time = 16.51 ns    (82.6 %), step = 30.75 ps     (154 m%)
SOAC: I4.MND.soac_m1       modn V(B,PSUB): ENTERING@ 0.0171288us duration:0.00212us ;
    tran: time = 17.51 ns    (87.5 %), step = 64.26 ps     (321 m%)
    tran: time = 18.52 ns    (92.6 %), step = 34.53 ps     (173 m%)
    tran: time = 19.51 ns    (97.5 %), step = 27.81 ps     (139 m%)
Number of accepted tran steps =             2734

Maximum value achieved for any signal of each quantity: 
V: V(I4.net1) = 3.735 V
I: I(V:p) = 712.1 uA

~~~~~~~~~~~~~~~~~~~~~~~~~~~~~~~~~
Post-Transient Simulation Summary
~~~~~~~~~~~~~~~~~~~~~~~~~~~~~~~~~
   -   To further speed up simulation, consider
          add ++aps on command line
   -   Non-default settings that could significantly slow down simulation
          errpreset = conservative, default moderate
          reltol = 10e-06, default 100e-06 (conservative)
~~~~~~~~~~~~~~~~~~~~~~~~~~~~~~~~~


During simulation, the CPU load for active processors is :
         0 (18.5 %)      1 (5.7 %)       2 (4.4 %)       3 (4.0 %)
         4 (6.0 %)       5 (16.5 %)      6 (4.9 %)       7 (2.4 %)
         8 (4.8 %)       9 (53.6 %)     10 (4.4 %)      11 (6.5 %)
        Total: 131.8%
Initial condition solution time: CPU = 465 us, elapsed = 469.923 us.
Intrinsic tran analysis time:    CPU = 267.339 ms, elapsed = 274.891 ms.
Total time required for tran analysis `tran': CPU = 269.142 ms, elapsed = 283.455 ms, util. = 95%.
Time accumulated: CPU = 1.83565 s, elapsed = 2.5156 s.
Peak resident memory used = 201 Mbytes.

finalTimeOP: writing operating point information to rawfile.

Opening the PSF file ../psf/mc1_separate/005/finalTimeOP.info ...
modelParameter: writing model parameter values to rawfile.

Opening the PSF file ../psf/mc1_separate/005/modelParameter.info ...
element: writing instance parameter values to rawfile.

Opening the PSF file ../psf/mc1_separate/005/element.info ...
outputParameter: writing output parameter values to rawfile.

Opening the PSF file ../psf/mc1_separate/005/outputParameter.info ...
designParamVals: writing netlist parameters to rawfile.

Opening the PSFASCII file ../psf/mc1_separate/005/designParamVals.info ...
primitives: writing primitives to rawfile.

Opening the PSFASCII file ../psf/mc1_separate/005/primitives.info.primitives ...
subckts: writing subcircuits to rawfile.

Opening the PSFASCII file ../psf/mc1_separate/005/subckts.info.subckts ...
    mc1: iteration = 5           (4.04 %), step = 1            (1.01 %)
6              5.05% 

************************************************
Transient Analysis `tran': time = (0 s -> 20 ns)
************************************************

Opening the PSF file ../psf/mc1_separate/006/tran.tran.tran ...

Notice from spectre during IC analysis, during transient analysis `tran', during Monte Carlo analysis `mc1'.
    GminDC = 1 pS is large enough to noticeably affect the DC solution.
        dV(I4.net2) = 101.841 mV
        Use the `gmin_check' option to eliminate or expand this report.
Warning from spectre during check, during IC analysis, during transient analysis `tran', during Monte Carlo analysis `mc1'.
    WARNING (CMI-2943): Parameter checks have been ignored because the valid value for parameter 'trise' could not be found in 'C0'.

DC simulation time: CPU = 358 us, elapsed = 358.105 us.
Important parameter values:
    start = 0 s
    outputstart = 0 s
    stop = 20 ns
    step = 20 ps
    maxstep = 200 ps
    ic = all
    useprevic = no
    skipdc = no
    reltol = 10e-06
    abstol(V) = 1 uV
    abstol(I) = 1 pA
    temp = 27 C
    tnom = 27 C
    tempeffects = all
    errpreset = conservative
    method = gear2only
    lteratio = 10
    relref = alllocal
    cmin = 0 F
    gmin = 1 pS
    rabsshort = 1 mOhm


Notice from spectre during transient analysis `tran', during Monte Carlo analysis `mc1'.
    Multithreading is disabled due to the size of the design being too small.


Output and IC/nodeset summary:
                 save   5       (current)
                 save   17      (voltage)

    tran: time = 509.1 ps    (2.55 %), step = 26.25 ps     (131 m%)
SOAC: I4.MND.soac_m1       modn V(B,PSUB): LEAVING@  0us ;
SOAC: I4.MND.soac_m1       modn V(B,PSUB): ENTERING@ 0.00117611us duration:0.00118us ;
    tran: time = 1.513 ns    (7.57 %), step = 18.07 ps    (90.3 m%)
    tran: time = 2.526 ns    (12.6 %), step = 27.43 ps     (137 m%)
    tran: time = 3.517 ns    (17.6 %), step = 25.42 ps     (127 m%)
SOAC: I4.MND.soac_m1       modn V(B,PSUB): LEAVING@  0.00310073us ;
    tran: time = 4.507 ns    (22.5 %), step = 48.63 ps     (243 m%)
SOAC: I4.MND.soac_m1       modn V(B,PSUB): ENTERING@ 0.0050251us duration:0.00192us ;
    tran: time = 5.502 ns    (27.5 %), step = 44.11 ps     (221 m%)
    tran: time = 6.508 ns    (32.5 %), step = 10.27 ps    (51.4 m%)
    tran: time = 7.523 ns    (37.6 %), step = 26 ps        (130 m%)
SOAC: I4.MND.soac_m1       modn V(B,PSUB): LEAVING@  0.00710072us ;
    tran: time = 8.508 ns    (42.5 %), step = 48.68 ps     (243 m%)
SOAC: I4.MND.soac_m1       modn V(B,PSUB): ENTERING@ 0.0090427us duration:0.00194us ;
    tran: time = 9.51 ns     (47.5 %), step = 33.26 ps     (166 m%)
    tran: time = 10.51 ns    (52.6 %), step = 24.01 ps     (120 m%)
    tran: time = 11.51 ns    (57.6 %), step = 15.88 ps    (79.4 m%)
    tran: time = 12.52 ns    (62.6 %), step = 61.72 ps     (309 m%)
SOAC: I4.MND.soac_m1       modn V(B,PSUB): LEAVING@  0.0120277us ;
SOAC: I4.MND.soac_m1       modn V(B,PSUB): ENTERING@ 0.0131118us duration:0.00108us ;
    tran: time = 13.54 ns    (67.7 %), step = 46.03 ps     (230 m%)
    tran: time = 14.52 ns    (72.6 %), step = 34.54 ps     (173 m%)
    tran: time = 15.51 ns    (77.5 %), step = 12.03 ps    (60.1 m%)
SOAC: I4.MND.soac_m1       modn V(B,PSUB): LEAVING@  0.0150041us ;
    tran: time = 16.51 ns    (82.6 %), step = 30.75 ps     (154 m%)
SOAC: I4.MND.soac_m1       modn V(B,PSUB): ENTERING@ 0.0171288us duration:0.00212us ;
    tran: time = 17.51 ns    (87.5 %), step = 64.26 ps     (321 m%)
    tran: time = 18.52 ns    (92.6 %), step = 34.53 ps     (173 m%)
    tran: time = 19.51 ns    (97.5 %), step = 27.81 ps     (139 m%)
Number of accepted tran steps =             2734

Maximum value achieved for any signal of each quantity: 
V: V(I4.net1) = 3.735 V
I: I(V:p) = 712.1 uA

~~~~~~~~~~~~~~~~~~~~~~~~~~~~~~~~~
Post-Transient Simulation Summary
~~~~~~~~~~~~~~~~~~~~~~~~~~~~~~~~~
   -   To further speed up simulation, consider
          add ++aps on command line
   -   Non-default settings that could significantly slow down simulation
          errpreset = conservative, default moderate
          reltol = 10e-06, default 100e-06 (conservative)
~~~~~~~~~~~~~~~~~~~~~~~~~~~~~~~~~


During simulation, the CPU load for active processors is :
         0 (18.3 %)      1 (8.2 %)       2 (5.0 %)       3 (12.2 %)
         4 (7.2 %)       5 (15.1 %)      6 (4.7 %)       7 (2.5 %)
         8 (4.6 %)       9 (49.1 %)     10 (4.0 %)      11 (6.5 %)
        Total: 137.4%
Initial condition solution time: CPU = 374 us, elapsed = 375.986 us.
Intrinsic tran analysis time:    CPU = 253.186 ms, elapsed = 259.901 ms.
Total time required for tran analysis `tran': CPU = 254.844 ms, elapsed = 267.952 ms, util. = 95.1%.
Time accumulated: CPU = 2.10482 s, elapsed = 2.82193 s.
Peak resident memory used = 201 Mbytes.

finalTimeOP: writing operating point information to rawfile.

Opening the PSF file ../psf/mc1_separate/006/finalTimeOP.info ...
modelParameter: writing model parameter values to rawfile.

Opening the PSF file ../psf/mc1_separate/006/modelParameter.info ...
element: writing instance parameter values to rawfile.

Opening the PSF file ../psf/mc1_separate/006/element.info ...
outputParameter: writing output parameter values to rawfile.

Opening the PSF file ../psf/mc1_separate/006/outputParameter.info ...
designParamVals: writing netlist parameters to rawfile.

Opening the PSFASCII file ../psf/mc1_separate/006/designParamVals.info ...
primitives: writing primitives to rawfile.

Opening the PSFASCII file ../psf/mc1_separate/006/primitives.info.primitives ...
subckts: writing subcircuits to rawfile.

Opening the PSFASCII file ../psf/mc1_separate/006/subckts.info.subckts ...
    mc1: iteration = 6           (5.05 %), step = 1            (1.01 %)
7              6.06% 

************************************************
Transient Analysis `tran': time = (0 s -> 20 ns)
************************************************

Opening the PSF file ../psf/mc1_separate/007/tran.tran.tran ...

Notice from spectre during IC analysis, during transient analysis `tran', during Monte Carlo analysis `mc1'.
    GminDC = 1 pS is large enough to noticeably affect the DC solution.
        dV(I4.net2) = 101.841 mV
        Use the `gmin_check' option to eliminate or expand this report.
Warning from spectre during check, during IC analysis, during transient analysis `tran', during Monte Carlo analysis `mc1'.
    WARNING (CMI-2943): Parameter checks have been ignored because the valid value for parameter 'trise' could not be found in 'C0'.

DC simulation time: CPU = 356 us, elapsed = 359.058 us.
Important parameter values:
    start = 0 s
    outputstart = 0 s
    stop = 20 ns
    step = 20 ps
    maxstep = 200 ps
    ic = all
    useprevic = no
    skipdc = no
    reltol = 10e-06
    abstol(V) = 1 uV
    abstol(I) = 1 pA
    temp = 27 C
    tnom = 27 C
    tempeffects = all
    errpreset = conservative
    method = gear2only
    lteratio = 10
    relref = alllocal
    cmin = 0 F
    gmin = 1 pS
    rabsshort = 1 mOhm


Notice from spectre during transient analysis `tran', during Monte Carlo analysis `mc1'.
    Multithreading is disabled due to the size of the design being too small.


Output and IC/nodeset summary:
                 save   5       (current)
                 save   17      (voltage)

    tran: time = 509.1 ps    (2.55 %), step = 26.25 ps     (131 m%)
SOAC: I4.MND.soac_m1       modn V(B,PSUB): LEAVING@  0us ;
SOAC: I4.MND.soac_m1       modn V(B,PSUB): ENTERING@ 0.00117611us duration:0.00118us ;
    tran: time = 1.513 ns    (7.57 %), step = 18.07 ps    (90.3 m%)
    tran: time = 2.526 ns    (12.6 %), step = 27.43 ps     (137 m%)
    tran: time = 3.517 ns    (17.6 %), step = 25.42 ps     (127 m%)
SOAC: I4.MND.soac_m1       modn V(B,PSUB): LEAVING@  0.00310073us ;
    tran: time = 4.507 ns    (22.5 %), step = 48.63 ps     (243 m%)
SOAC: I4.MND.soac_m1       modn V(B,PSUB): ENTERING@ 0.0050251us duration:0.00192us ;
    tran: time = 5.502 ns    (27.5 %), step = 44.11 ps     (221 m%)
    tran: time = 6.508 ns    (32.5 %), step = 10.27 ps    (51.4 m%)
    tran: time = 7.523 ns    (37.6 %), step = 26 ps        (130 m%)
SOAC: I4.MND.soac_m1       modn V(B,PSUB): LEAVING@  0.00710072us ;
    tran: time = 8.508 ns    (42.5 %), step = 48.68 ps     (243 m%)
SOAC: I4.MND.soac_m1       modn V(B,PSUB): ENTERING@ 0.0090427us duration:0.00194us ;
    tran: time = 9.51 ns     (47.5 %), step = 33.26 ps     (166 m%)
    tran: time = 10.51 ns    (52.6 %), step = 24.01 ps     (120 m%)
    tran: time = 11.51 ns    (57.6 %), step = 15.88 ps    (79.4 m%)
    tran: time = 12.52 ns    (62.6 %), step = 61.72 ps     (309 m%)
SOAC: I4.MND.soac_m1       modn V(B,PSUB): LEAVING@  0.0120277us ;
SOAC: I4.MND.soac_m1       modn V(B,PSUB): ENTERING@ 0.0131118us duration:0.00108us ;
    tran: time = 13.54 ns    (67.7 %), step = 46.03 ps     (230 m%)
    tran: time = 14.52 ns    (72.6 %), step = 34.54 ps     (173 m%)
    tran: time = 15.51 ns    (77.5 %), step = 12.03 ps    (60.1 m%)
SOAC: I4.MND.soac_m1       modn V(B,PSUB): LEAVING@  0.0150041us ;
    tran: time = 16.51 ns    (82.6 %), step = 30.75 ps     (154 m%)
SOAC: I4.MND.soac_m1       modn V(B,PSUB): ENTERING@ 0.0171288us duration:0.00212us ;
    tran: time = 17.51 ns    (87.5 %), step = 64.26 ps     (321 m%)
    tran: time = 18.52 ns    (92.6 %), step = 34.53 ps     (173 m%)
    tran: time = 19.51 ns    (97.5 %), step = 27.81 ps     (139 m%)
Number of accepted tran steps =             2734

Maximum value achieved for any signal of each quantity: 
V: V(I4.net1) = 3.735 V
I: I(V:p) = 712.1 uA

~~~~~~~~~~~~~~~~~~~~~~~~~~~~~~~~~
Post-Transient Simulation Summary
~~~~~~~~~~~~~~~~~~~~~~~~~~~~~~~~~
   -   To further speed up simulation, consider
          add ++aps on command line
   -   Non-default settings that could significantly slow down simulation
          errpreset = conservative, default moderate
          reltol = 10e-06, default 100e-06 (conservative)
~~~~~~~~~~~~~~~~~~~~~~~~~~~~~~~~~


During simulation, the CPU load for active processors is :
         0 (16.8 %)      1 (7.4 %)       2 (5.8 %)       3 (19.4 %)
         4 (6.8 %)       5 (15.9 %)      6 (4.5 %)       7 (2.9 %)
         8 (6.1 %)       9 (44.3 %)     10 (4.2 %)      11 (9.1 %)
        Total: 143.3%
Initial condition solution time: CPU = 374 us, elapsed = 377.893 us.
Intrinsic tran analysis time:    CPU = 254.194 ms, elapsed = 260.887 ms.
Total time required for tran analysis `tran': CPU = 255.878 ms, elapsed = 270.197 ms, util. = 94.7%.
Time accumulated: CPU = 2.37295 s, elapsed = 3.12921 s.
Peak resident memory used = 201 Mbytes.

finalTimeOP: writing operating point information to rawfile.

Opening the PSF file ../psf/mc1_separate/007/finalTimeOP.info ...
modelParameter: writing model parameter values to rawfile.

Opening the PSF file ../psf/mc1_separate/007/modelParameter.info ...
element: writing instance parameter values to rawfile.

Opening the PSF file ../psf/mc1_separate/007/element.info ...
outputParameter: writing output parameter values to rawfile.

Opening the PSF file ../psf/mc1_separate/007/outputParameter.info ...
designParamVals: writing netlist parameters to rawfile.

Opening the PSFASCII file ../psf/mc1_separate/007/designParamVals.info ...
primitives: writing primitives to rawfile.

Opening the PSFASCII file ../psf/mc1_separate/007/primitives.info.primitives ...
subckts: writing subcircuits to rawfile.

Opening the PSFASCII file ../psf/mc1_separate/007/subckts.info.subckts ...
    mc1: iteration = 7           (6.06 %), step = 1            (1.01 %)
8              7.07% 

************************************************
Transient Analysis `tran': time = (0 s -> 20 ns)
************************************************

Opening the PSF file ../psf/mc1_separate/008/tran.tran.tran ...

Notice from spectre during IC analysis, during transient analysis `tran', during Monte Carlo analysis `mc1'.
    GminDC = 1 pS is large enough to noticeably affect the DC solution.
        dV(I4.net2) = 101.841 mV
        Use the `gmin_check' option to eliminate or expand this report.
Warning from spectre during check, during IC analysis, during transient analysis `tran', during Monte Carlo analysis `mc1'.
    WARNING (CMI-2943): Parameter checks have been ignored because the valid value for parameter 'trise' could not be found in 'C0'.

DC simulation time: CPU = 371 us, elapsed = 374.794 us.
Important parameter values:
    start = 0 s
    outputstart = 0 s
    stop = 20 ns
    step = 20 ps
    maxstep = 200 ps
    ic = all
    useprevic = no
    skipdc = no
    reltol = 10e-06
    abstol(V) = 1 uV
    abstol(I) = 1 pA
    temp = 27 C
    tnom = 27 C
    tempeffects = all
    errpreset = conservative
    method = gear2only
    lteratio = 10
    relref = alllocal
    cmin = 0 F
    gmin = 1 pS
    rabsshort = 1 mOhm


Notice from spectre during transient analysis `tran', during Monte Carlo analysis `mc1'.
    Multithreading is disabled due to the size of the design being too small.


Output and IC/nodeset summary:
                 save   5       (current)
                 save   17      (voltage)

    tran: time = 509.1 ps    (2.55 %), step = 26.25 ps     (131 m%)
SOAC: I4.MND.soac_m1       modn V(B,PSUB): LEAVING@  0us ;
SOAC: I4.MND.soac_m1       modn V(B,PSUB): ENTERING@ 0.00117611us duration:0.00118us ;
    tran: time = 1.513 ns    (7.57 %), step = 18.07 ps    (90.3 m%)
    tran: time = 2.526 ns    (12.6 %), step = 27.43 ps     (137 m%)
    tran: time = 3.517 ns    (17.6 %), step = 25.42 ps     (127 m%)
SOAC: I4.MND.soac_m1       modn V(B,PSUB): LEAVING@  0.00310073us ;
    tran: time = 4.507 ns    (22.5 %), step = 48.63 ps     (243 m%)
SOAC: I4.MND.soac_m1       modn V(B,PSUB): ENTERING@ 0.0050251us duration:0.00192us ;
    tran: time = 5.502 ns    (27.5 %), step = 44.11 ps     (221 m%)
    tran: time = 6.508 ns    (32.5 %), step = 10.27 ps    (51.4 m%)
    tran: time = 7.523 ns    (37.6 %), step = 26 ps        (130 m%)
SOAC: I4.MND.soac_m1       modn V(B,PSUB): LEAVING@  0.00710072us ;
    tran: time = 8.508 ns    (42.5 %), step = 48.68 ps     (243 m%)
SOAC: I4.MND.soac_m1       modn V(B,PSUB): ENTERING@ 0.0090427us duration:0.00194us ;
    tran: time = 9.51 ns     (47.5 %), step = 33.26 ps     (166 m%)
    tran: time = 10.51 ns    (52.6 %), step = 24.01 ps     (120 m%)
    tran: time = 11.51 ns    (57.6 %), step = 15.88 ps    (79.4 m%)
    tran: time = 12.52 ns    (62.6 %), step = 61.72 ps     (309 m%)
SOAC: I4.MND.soac_m1       modn V(B,PSUB): LEAVING@  0.0120277us ;
SOAC: I4.MND.soac_m1       modn V(B,PSUB): ENTERING@ 0.0131118us duration:0.00108us ;
    tran: time = 13.54 ns    (67.7 %), step = 46.03 ps     (230 m%)
    tran: time = 14.52 ns    (72.6 %), step = 34.54 ps     (173 m%)
    tran: time = 15.51 ns    (77.5 %), step = 12.03 ps    (60.1 m%)
SOAC: I4.MND.soac_m1       modn V(B,PSUB): LEAVING@  0.0150041us ;
    tran: time = 16.51 ns    (82.6 %), step = 30.75 ps     (154 m%)
SOAC: I4.MND.soac_m1       modn V(B,PSUB): ENTERING@ 0.0171288us duration:0.00212us ;
    tran: time = 17.51 ns    (87.5 %), step = 64.26 ps     (321 m%)
    tran: time = 18.52 ns    (92.6 %), step = 34.53 ps     (173 m%)
    tran: time = 19.51 ns    (97.5 %), step = 27.81 ps     (139 m%)
Number of accepted tran steps =             2734

Maximum value achieved for any signal of each quantity: 
V: V(I4.net1) = 3.735 V
I: I(V:p) = 712.1 uA

~~~~~~~~~~~~~~~~~~~~~~~~~~~~~~~~~
Post-Transient Simulation Summary
~~~~~~~~~~~~~~~~~~~~~~~~~~~~~~~~~
   -   To further speed up simulation, consider
          add ++aps on command line
   -   Non-default settings that could significantly slow down simulation
          errpreset = conservative, default moderate
          reltol = 10e-06, default 100e-06 (conservative)
~~~~~~~~~~~~~~~~~~~~~~~~~~~~~~~~~


During simulation, the CPU load for active processors is :
         0 (15.3 %)      1 (7.3 %)       2 (7.6 %)       3 (19.6 %)
         4 (6.4 %)       5 (15.0 %)      6 (12.0 %)      7 (3.2 %)
         8 (7.3 %)       9 (40.4 %)     10 (3.8 %)      11 (8.8 %)
        Total: 146.7%
Initial condition solution time: CPU = 389 us, elapsed = 393.867 us.
Intrinsic tran analysis time:    CPU = 263.025 ms, elapsed = 269.955 ms.
Total time required for tran analysis `tran': CPU = 264.692 ms, elapsed = 278.36 ms, util. = 95.1%.
Time accumulated: CPU = 2.65186 s, elapsed = 3.44672 s.
Peak resident memory used = 201 Mbytes.

finalTimeOP: writing operating point information to rawfile.

Opening the PSF file ../psf/mc1_separate/008/finalTimeOP.info ...
modelParameter: writing model parameter values to rawfile.

Opening the PSF file ../psf/mc1_separate/008/modelParameter.info ...
element: writing instance parameter values to rawfile.

Opening the PSF file ../psf/mc1_separate/008/element.info ...
outputParameter: writing output parameter values to rawfile.

Opening the PSF file ../psf/mc1_separate/008/outputParameter.info ...
designParamVals: writing netlist parameters to rawfile.

Opening the PSFASCII file ../psf/mc1_separate/008/designParamVals.info ...
primitives: writing primitives to rawfile.

Opening the PSFASCII file ../psf/mc1_separate/008/primitives.info.primitives ...
subckts: writing subcircuits to rawfile.

Opening the PSFASCII file ../psf/mc1_separate/008/subckts.info.subckts ...
    mc1: iteration = 8           (7.07 %), step = 1            (1.01 %)
9              8.08% 

************************************************
Transient Analysis `tran': time = (0 s -> 20 ns)
************************************************

Opening the PSF file ../psf/mc1_separate/009/tran.tran.tran ...

Notice from spectre during IC analysis, during transient analysis `tran', during Monte Carlo analysis `mc1'.
    GminDC = 1 pS is large enough to noticeably affect the DC solution.
        dV(I4.net2) = 101.841 mV
        Use the `gmin_check' option to eliminate or expand this report.
Warning from spectre during check, during IC analysis, during transient analysis `tran', during Monte Carlo analysis `mc1'.
    WARNING (CMI-2943): Parameter checks have been ignored because the valid value for parameter 'trise' could not be found in 'C0'.

DC simulation time: CPU = 400 us, elapsed = 403.166 us.
Important parameter values:
    start = 0 s
    outputstart = 0 s
    stop = 20 ns
    step = 20 ps
    maxstep = 200 ps
    ic = all
    useprevic = no
    skipdc = no
    reltol = 10e-06
    abstol(V) = 1 uV
    abstol(I) = 1 pA
    temp = 27 C
    tnom = 27 C
    tempeffects = all
    errpreset = conservative
    method = gear2only
    lteratio = 10
    relref = alllocal
    cmin = 0 F
    gmin = 1 pS
    rabsshort = 1 mOhm


Notice from spectre during transient analysis `tran', during Monte Carlo analysis `mc1'.
    Multithreading is disabled due to the size of the design being too small.


Output and IC/nodeset summary:
                 save   5       (current)
                 save   17      (voltage)

    tran: time = 509.1 ps    (2.55 %), step = 26.25 ps     (131 m%)
SOAC: I4.MND.soac_m1       modn V(B,PSUB): LEAVING@  0us ;
SOAC: I4.MND.soac_m1       modn V(B,PSUB): ENTERING@ 0.00117611us duration:0.00118us ;
    tran: time = 1.513 ns    (7.57 %), step = 18.07 ps    (90.3 m%)
    tran: time = 2.526 ns    (12.6 %), step = 27.43 ps     (137 m%)
    tran: time = 3.517 ns    (17.6 %), step = 25.42 ps     (127 m%)
SOAC: I4.MND.soac_m1       modn V(B,PSUB): LEAVING@  0.00310073us ;
    tran: time = 4.507 ns    (22.5 %), step = 48.63 ps     (243 m%)
SOAC: I4.MND.soac_m1       modn V(B,PSUB): ENTERING@ 0.0050251us duration:0.00192us ;
    tran: time = 5.502 ns    (27.5 %), step = 44.11 ps     (221 m%)
    tran: time = 6.508 ns    (32.5 %), step = 10.27 ps    (51.4 m%)
    tran: time = 7.523 ns    (37.6 %), step = 26 ps        (130 m%)
SOAC: I4.MND.soac_m1       modn V(B,PSUB): LEAVING@  0.00710072us ;
    tran: time = 8.508 ns    (42.5 %), step = 48.68 ps     (243 m%)
SOAC: I4.MND.soac_m1       modn V(B,PSUB): ENTERING@ 0.0090427us duration:0.00194us ;
    tran: time = 9.51 ns     (47.5 %), step = 33.26 ps     (166 m%)
    tran: time = 10.51 ns    (52.6 %), step = 24.01 ps     (120 m%)
    tran: time = 11.51 ns    (57.6 %), step = 15.88 ps    (79.4 m%)
    tran: time = 12.52 ns    (62.6 %), step = 61.72 ps     (309 m%)
SOAC: I4.MND.soac_m1       modn V(B,PSUB): LEAVING@  0.0120277us ;
SOAC: I4.MND.soac_m1       modn V(B,PSUB): ENTERING@ 0.0131118us duration:0.00108us ;
    tran: time = 13.54 ns    (67.7 %), step = 46.03 ps     (230 m%)
    tran: time = 14.52 ns    (72.6 %), step = 34.54 ps     (173 m%)
    tran: time = 15.51 ns    (77.5 %), step = 12.03 ps    (60.1 m%)
SOAC: I4.MND.soac_m1       modn V(B,PSUB): LEAVING@  0.0150041us ;
    tran: time = 16.51 ns    (82.6 %), step = 30.75 ps     (154 m%)
SOAC: I4.MND.soac_m1       modn V(B,PSUB): ENTERING@ 0.0171288us duration:0.00212us ;
    tran: time = 17.51 ns    (87.5 %), step = 64.26 ps     (321 m%)
    tran: time = 18.52 ns    (92.6 %), step = 34.53 ps     (173 m%)
    tran: time = 19.51 ns    (97.5 %), step = 27.81 ps     (139 m%)
Number of accepted tran steps =             2734

Maximum value achieved for any signal of each quantity: 
V: V(I4.net1) = 3.735 V
I: I(V:p) = 712.1 uA

~~~~~~~~~~~~~~~~~~~~~~~~~~~~~~~~~
Post-Transient Simulation Summary
~~~~~~~~~~~~~~~~~~~~~~~~~~~~~~~~~
   -   To further speed up simulation, consider
          add ++aps on command line
   -   Non-default settings that could significantly slow down simulation
          errpreset = conservative, default moderate
          reltol = 10e-06, default 100e-06 (conservative)
~~~~~~~~~~~~~~~~~~~~~~~~~~~~~~~~~


During simulation, the CPU load for active processors is :
         0 (15.9 %)      1 (6.7 %)       2 (7.0 %)       3 (18.0 %)
         4 (5.9 %)       5 (13.9 %)      6 (16.4 %)      7 (3.2 %)
         8 (8.6 %)       9 (37.0 %)     10 (3.5 %)      11 (8.1 %)
        Total: 144.2%
Initial condition solution time: CPU = 418 us, elapsed = 422.001 us.
Intrinsic tran analysis time:    CPU = 259.779 ms, elapsed = 267.703 ms.
Total time required for tran analysis `tran': CPU = 261.612 ms, elapsed = 277.75 ms, util. = 94.2%.
Time accumulated: CPU = 2.92612 s, elapsed = 3.76367 s.
Peak resident memory used = 201 Mbytes.

finalTimeOP: writing operating point information to rawfile.

Opening the PSF file ../psf/mc1_separate/009/finalTimeOP.info ...
modelParameter: writing model parameter values to rawfile.

Opening the PSF file ../psf/mc1_separate/009/modelParameter.info ...
element: writing instance parameter values to rawfile.

Opening the PSF file ../psf/mc1_separate/009/element.info ...
outputParameter: writing output parameter values to rawfile.

Opening the PSF file ../psf/mc1_separate/009/outputParameter.info ...
designParamVals: writing netlist parameters to rawfile.

Opening the PSFASCII file ../psf/mc1_separate/009/designParamVals.info ...
primitives: writing primitives to rawfile.

Opening the PSFASCII file ../psf/mc1_separate/009/primitives.info.primitives ...
subckts: writing subcircuits to rawfile.

Opening the PSFASCII file ../psf/mc1_separate/009/subckts.info.subckts ...
    mc1: iteration = 9           (8.08 %), step = 1            (1.01 %)
10             9.09% 

************************************************
Transient Analysis `tran': time = (0 s -> 20 ns)
************************************************

Opening the PSF file ../psf/mc1_separate/010/tran.tran.tran ...

Notice from spectre during IC analysis, during transient analysis `tran', during Monte Carlo analysis `mc1'.
    GminDC = 1 pS is large enough to noticeably affect the DC solution.
        dV(I4.net2) = 101.841 mV
        Use the `gmin_check' option to eliminate or expand this report.
Warning from spectre during check, during IC analysis, during transient analysis `tran', during Monte Carlo analysis `mc1'.
    WARNING (CMI-2943): Parameter checks have been ignored because the valid value for parameter 'trise' could not be found in 'C0'.

DC simulation time: CPU = 351 us, elapsed = 354.052 us.
Important parameter values:
    start = 0 s
    outputstart = 0 s
    stop = 20 ns
    step = 20 ps
    maxstep = 200 ps
    ic = all
    useprevic = no
    skipdc = no
    reltol = 10e-06
    abstol(V) = 1 uV
    abstol(I) = 1 pA
    temp = 27 C
    tnom = 27 C
    tempeffects = all
    errpreset = conservative
    method = gear2only
    lteratio = 10
    relref = alllocal
    cmin = 0 F
    gmin = 1 pS
    rabsshort = 1 mOhm


Notice from spectre during transient analysis `tran', during Monte Carlo analysis `mc1'.
    Multithreading is disabled due to the size of the design being too small.


Output and IC/nodeset summary:
                 save   5       (current)
                 save   17      (voltage)

    tran: time = 509.1 ps    (2.55 %), step = 26.25 ps     (131 m%)
SOAC: I4.MND.soac_m1       modn V(B,PSUB): LEAVING@  0us ;
SOAC: I4.MND.soac_m1       modn V(B,PSUB): ENTERING@ 0.00117611us duration:0.00118us ;
    tran: time = 1.513 ns    (7.57 %), step = 18.07 ps    (90.3 m%)
    tran: time = 2.526 ns    (12.6 %), step = 27.43 ps     (137 m%)
    tran: time = 3.517 ns    (17.6 %), step = 25.42 ps     (127 m%)
SOAC: I4.MND.soac_m1       modn V(B,PSUB): LEAVING@  0.00310073us ;
    tran: time = 4.507 ns    (22.5 %), step = 48.63 ps     (243 m%)
SOAC: I4.MND.soac_m1       modn V(B,PSUB): ENTERING@ 0.0050251us duration:0.00192us ;
    tran: time = 5.502 ns    (27.5 %), step = 44.11 ps     (221 m%)
    tran: time = 6.508 ns    (32.5 %), step = 10.27 ps    (51.4 m%)
    tran: time = 7.523 ns    (37.6 %), step = 26 ps        (130 m%)
SOAC: I4.MND.soac_m1       modn V(B,PSUB): LEAVING@  0.00710072us ;
    tran: time = 8.508 ns    (42.5 %), step = 48.68 ps     (243 m%)
SOAC: I4.MND.soac_m1       modn V(B,PSUB): ENTERING@ 0.0090427us duration:0.00194us ;
    tran: time = 9.51 ns     (47.5 %), step = 33.26 ps     (166 m%)
    tran: time = 10.51 ns    (52.6 %), step = 24.01 ps     (120 m%)
    tran: time = 11.51 ns    (57.6 %), step = 15.88 ps    (79.4 m%)
    tran: time = 12.52 ns    (62.6 %), step = 61.72 ps     (309 m%)
SOAC: I4.MND.soac_m1       modn V(B,PSUB): LEAVING@  0.0120277us ;
SOAC: I4.MND.soac_m1       modn V(B,PSUB): ENTERING@ 0.0131118us duration:0.00108us ;
    tran: time = 13.54 ns    (67.7 %), step = 46.03 ps     (230 m%)
    tran: time = 14.52 ns    (72.6 %), step = 34.54 ps     (173 m%)
    tran: time = 15.51 ns    (77.5 %), step = 12.03 ps    (60.1 m%)
SOAC: I4.MND.soac_m1       modn V(B,PSUB): LEAVING@  0.0150041us ;
    tran: time = 16.51 ns    (82.6 %), step = 30.75 ps     (154 m%)
SOAC: I4.MND.soac_m1       modn V(B,PSUB): ENTERING@ 0.0171288us duration:0.00212us ;
    tran: time = 17.51 ns    (87.5 %), step = 64.26 ps     (321 m%)
    tran: time = 18.52 ns    (92.6 %), step = 34.53 ps     (173 m%)
    tran: time = 19.51 ns    (97.5 %), step = 27.81 ps     (139 m%)
Number of accepted tran steps =             2734

Maximum value achieved for any signal of each quantity: 
V: V(I4.net1) = 3.735 V
I: I(V:p) = 712.1 uA

~~~~~~~~~~~~~~~~~~~~~~~~~~~~~~~~~
Post-Transient Simulation Summary
~~~~~~~~~~~~~~~~~~~~~~~~~~~~~~~~~
   -   To further speed up simulation, consider
          add ++aps on command line
   -   Non-default settings that could significantly slow down simulation
          errpreset = conservative, default moderate
          reltol = 10e-06, default 100e-06 (conservative)
~~~~~~~~~~~~~~~~~~~~~~~~~~~~~~~~~


During simulation, the CPU load for active processors is :
         0 (21.7 %)      1 (6.4 %)       2 (6.7 %)       3 (16.8 %)
         4 (5.4 %)       5 (13.3 %)      6 (15.3 %)      7 (3.0 %)
         8 (8.4 %)       9 (34.1 %)     10 (3.2 %)      11 (8.4 %)
        Total: 142.7%
Initial condition solution time: CPU = 368 us, elapsed = 370.979 us.
Intrinsic tran analysis time:    CPU = 265.796 ms, elapsed = 274.398 ms.
Total time required for tran analysis `tran': CPU = 267.387 ms, elapsed = 284.041 ms, util. = 94.1%.
Time accumulated: CPU = 3.20597 s, elapsed = 4.08802 s.
Peak resident memory used = 201 Mbytes.

finalTimeOP: writing operating point information to rawfile.

Opening the PSF file ../psf/mc1_separate/010/finalTimeOP.info ...
modelParameter: writing model parameter values to rawfile.

Opening the PSF file ../psf/mc1_separate/010/modelParameter.info ...
element: writing instance parameter values to rawfile.

Opening the PSF file ../psf/mc1_separate/010/element.info ...
outputParameter: writing output parameter values to rawfile.

Opening the PSF file ../psf/mc1_separate/010/outputParameter.info ...
designParamVals: writing netlist parameters to rawfile.

Opening the PSFASCII file ../psf/mc1_separate/010/designParamVals.info ...
primitives: writing primitives to rawfile.

Opening the PSFASCII file ../psf/mc1_separate/010/primitives.info.primitives ...
subckts: writing subcircuits to rawfile.

Opening the PSFASCII file ../psf/mc1_separate/010/subckts.info.subckts ...
    mc1: iteration = 10          (9.09 %), step = 1            (1.01 %)
11            10.10% 

************************************************
Transient Analysis `tran': time = (0 s -> 20 ns)
************************************************

Opening the PSF file ../psf/mc1_separate/011/tran.tran.tran ...

Notice from spectre during IC analysis, during transient analysis `tran', during Monte Carlo analysis `mc1'.
    GminDC = 1 pS is large enough to noticeably affect the DC solution.
        dV(I4.net2) = 101.841 mV
        Use the `gmin_check' option to eliminate or expand this report.
Warning from spectre during check, during IC analysis, during transient analysis `tran', during Monte Carlo analysis `mc1'.
    WARNING (CMI-2943): Parameter checks have been ignored because the valid value for parameter 'trise' could not be found in 'C0'.

DC simulation time: CPU = 342 us, elapsed = 342.131 us.
Important parameter values:
    start = 0 s
    outputstart = 0 s
    stop = 20 ns
    step = 20 ps
    maxstep = 200 ps
    ic = all
    useprevic = no
    skipdc = no
    reltol = 10e-06
    abstol(V) = 1 uV
    abstol(I) = 1 pA
    temp = 27 C
    tnom = 27 C
    tempeffects = all
    errpreset = conservative
    method = gear2only
    lteratio = 10
    relref = alllocal
    cmin = 0 F
    gmin = 1 pS
    rabsshort = 1 mOhm


Notice from spectre during transient analysis `tran', during Monte Carlo analysis `mc1'.
    Multithreading is disabled due to the size of the design being too small.


Output and IC/nodeset summary:
                 save   5       (current)
                 save   17      (voltage)

    tran: time = 509.1 ps    (2.55 %), step = 26.25 ps     (131 m%)
SOAC: I4.MND.soac_m1       modn V(B,PSUB): LEAVING@  0us ;
SOAC: I4.MND.soac_m1       modn V(B,PSUB): ENTERING@ 0.00117611us duration:0.00118us ;
    tran: time = 1.513 ns    (7.57 %), step = 18.07 ps    (90.3 m%)
    tran: time = 2.526 ns    (12.6 %), step = 27.43 ps     (137 m%)
    tran: time = 3.517 ns    (17.6 %), step = 25.42 ps     (127 m%)
SOAC: I4.MND.soac_m1       modn V(B,PSUB): LEAVING@  0.00310073us ;
    tran: time = 4.507 ns    (22.5 %), step = 48.63 ps     (243 m%)
SOAC: I4.MND.soac_m1       modn V(B,PSUB): ENTERING@ 0.0050251us duration:0.00192us ;
    tran: time = 5.502 ns    (27.5 %), step = 44.11 ps     (221 m%)
    tran: time = 6.508 ns    (32.5 %), step = 10.27 ps    (51.4 m%)
    tran: time = 7.523 ns    (37.6 %), step = 26 ps        (130 m%)
SOAC: I4.MND.soac_m1       modn V(B,PSUB): LEAVING@  0.00710072us ;
    tran: time = 8.508 ns    (42.5 %), step = 48.68 ps     (243 m%)
SOAC: I4.MND.soac_m1       modn V(B,PSUB): ENTERING@ 0.0090427us duration:0.00194us ;
    tran: time = 9.51 ns     (47.5 %), step = 33.26 ps     (166 m%)
    tran: time = 10.51 ns    (52.6 %), step = 24.01 ps     (120 m%)
    tran: time = 11.51 ns    (57.6 %), step = 15.88 ps    (79.4 m%)
    tran: time = 12.52 ns    (62.6 %), step = 61.72 ps     (309 m%)
SOAC: I4.MND.soac_m1       modn V(B,PSUB): LEAVING@  0.0120277us ;
SOAC: I4.MND.soac_m1       modn V(B,PSUB): ENTERING@ 0.0131118us duration:0.00108us ;
    tran: time = 13.54 ns    (67.7 %), step = 46.03 ps     (230 m%)
    tran: time = 14.52 ns    (72.6 %), step = 34.54 ps     (173 m%)
    tran: time = 15.51 ns    (77.5 %), step = 12.03 ps    (60.1 m%)
SOAC: I4.MND.soac_m1       modn V(B,PSUB): LEAVING@  0.0150041us ;
    tran: time = 16.51 ns    (82.6 %), step = 30.75 ps     (154 m%)
SOAC: I4.MND.soac_m1       modn V(B,PSUB): ENTERING@ 0.0171288us duration:0.00212us ;
    tran: time = 17.51 ns    (87.5 %), step = 64.26 ps     (321 m%)
    tran: time = 18.52 ns    (92.6 %), step = 34.53 ps     (173 m%)
    tran: time = 19.51 ns    (97.5 %), step = 27.81 ps     (139 m%)
Number of accepted tran steps =             2734

Maximum value achieved for any signal of each quantity: 
V: V(I4.net1) = 3.735 V
I: I(V:p) = 712.1 uA

~~~~~~~~~~~~~~~~~~~~~~~~~~~~~~~~~
Post-Transient Simulation Summary
~~~~~~~~~~~~~~~~~~~~~~~~~~~~~~~~~
   -   To further speed up simulation, consider
          add ++aps on command line
   -   Non-default settings that could significantly slow down simulation
          errpreset = conservative, default moderate
          reltol = 10e-06, default 100e-06 (conservative)
~~~~~~~~~~~~~~~~~~~~~~~~~~~~~~~~~


[...]
          errpreset = conservative, default moderate
          reltol = 10e-06, default 100e-06 (conservative)
~~~~~~~~~~~~~~~~~~~~~~~~~~~~~~~~~


During simulation, the CPU load for active processors is :
         0 (16.1 %)      1 (10.1 %)      2 (14.5 %)      3 (14.9 %)
         4 (22.9 %)      5 (7.9 %)       6 (11.6 %)      7 (6.8 %)
         8 (12.1 %)      9 (11.7 %)     10 (16.2 %)     11 (8.0 %)
        Total: 152.7%
Initial condition solution time: CPU = 388 us, elapsed = 390.053 us.
Intrinsic tran analysis time:    CPU = 259.468 ms, elapsed = 266.959 ms.
Total time required for tran analysis `tran': CPU = 261.286 ms, elapsed = 277.087 ms, util. = 94.3%.
Time accumulated: CPU = 27.1945 s, elapsed = 31.7756 s.
Peak resident memory used = 203 Mbytes.

finalTimeOP: writing operating point information to rawfile.

Opening the PSF file ../psf/mc1_separate/097/finalTimeOP.info ...
modelParameter: writing model parameter values to rawfile.

Opening the PSF file ../psf/mc1_separate/097/modelParameter.info ...
element: writing instance parameter values to rawfile.

Opening the PSF file ../psf/mc1_separate/097/element.info ...
outputParameter: writing output parameter values to rawfile.

Opening the PSF file ../psf/mc1_separate/097/outputParameter.info ...
designParamVals: writing netlist parameters to rawfile.

Opening the PSFASCII file ../psf/mc1_separate/097/designParamVals.info ...
primitives: writing primitives to rawfile.

Opening the PSFASCII file ../psf/mc1_separate/097/primitives.info.primitives ...
subckts: writing subcircuits to rawfile.

Opening the PSFASCII file ../psf/mc1_separate/097/subckts.info.subckts ...
    mc1: iteration = 97            (97 %), step = 1            (1.01 %)
98            97.98% 

************************************************
Transient Analysis `tran': time = (0 s -> 20 ns)
************************************************

Opening the PSF file ../psf/mc1_separate/098/tran.tran.tran ...

Notice from spectre during IC analysis, during transient analysis `tran', during Monte Carlo analysis `mc1'.
    GminDC = 1 pS is large enough to noticeably affect the DC solution.
        dV(I4.net2) = 101.841 mV
        Use the `gmin_check' option to eliminate or expand this report.
Warning from spectre during check, during IC analysis, during transient analysis `tran', during Monte Carlo analysis `mc1'.
    WARNING (CMI-2943): Parameter checks have been ignored because the valid value for parameter 'trise' could not be found in 'C0'.

DC simulation time: CPU = 399 us, elapsed = 403.166 us.
Important parameter values:
    start = 0 s
    outputstart = 0 s
    stop = 20 ns
    step = 20 ps
    maxstep = 200 ps
    ic = all
    useprevic = no
    skipdc = no
    reltol = 10e-06
    abstol(V) = 1 uV
    abstol(I) = 1 pA
    temp = 27 C
    tnom = 27 C
    tempeffects = all
    errpreset = conservative
    method = gear2only
    lteratio = 10
    relref = alllocal
    cmin = 0 F
    gmin = 1 pS
    rabsshort = 1 mOhm


Notice from spectre during transient analysis `tran', during Monte Carlo analysis `mc1'.
    Multithreading is disabled due to the size of the design being too small.


Output and IC/nodeset summary:
                 save   5       (current)
                 save   17      (voltage)

    tran: time = 509.1 ps    (2.55 %), step = 26.25 ps     (131 m%)
SOAC: I4.MND.soac_m1       modn V(B,PSUB): LEAVING@  0us ;
SOAC: I4.MND.soac_m1       modn V(B,PSUB): ENTERING@ 0.00117611us duration:0.00118us ;
    tran: time = 1.513 ns    (7.57 %), step = 18.07 ps    (90.3 m%)
    tran: time = 2.526 ns    (12.6 %), step = 27.43 ps     (137 m%)
    tran: time = 3.517 ns    (17.6 %), step = 25.42 ps     (127 m%)
SOAC: I4.MND.soac_m1       modn V(B,PSUB): LEAVING@  0.00310073us ;
    tran: time = 4.507 ns    (22.5 %), step = 48.63 ps     (243 m%)
SOAC: I4.MND.soac_m1       modn V(B,PSUB): ENTERING@ 0.0050251us duration:0.00192us ;
    tran: time = 5.502 ns    (27.5 %), step = 44.11 ps     (221 m%)
    tran: time = 6.508 ns    (32.5 %), step = 10.27 ps    (51.4 m%)
    tran: time = 7.523 ns    (37.6 %), step = 26 ps        (130 m%)
SOAC: I4.MND.soac_m1       modn V(B,PSUB): LEAVING@  0.00710072us ;
    tran: time = 8.508 ns    (42.5 %), step = 48.68 ps     (243 m%)
SOAC: I4.MND.soac_m1       modn V(B,PSUB): ENTERING@ 0.0090427us duration:0.00194us ;
    tran: time = 9.51 ns     (47.5 %), step = 33.26 ps     (166 m%)
    tran: time = 10.51 ns    (52.6 %), step = 24.01 ps     (120 m%)
    tran: time = 11.51 ns    (57.6 %), step = 15.88 ps    (79.4 m%)
    tran: time = 12.52 ns    (62.6 %), step = 61.72 ps     (309 m%)
SOAC: I4.MND.soac_m1       modn V(B,PSUB): LEAVING@  0.0120277us ;
SOAC: I4.MND.soac_m1       modn V(B,PSUB): ENTERING@ 0.0131118us duration:0.00108us ;
    tran: time = 13.54 ns    (67.7 %), step = 46.03 ps     (230 m%)
    tran: time = 14.52 ns    (72.6 %), step = 34.54 ps     (173 m%)
    tran: time = 15.51 ns    (77.5 %), step = 12.03 ps    (60.1 m%)
SOAC: I4.MND.soac_m1       modn V(B,PSUB): LEAVING@  0.0150041us ;
    tran: time = 16.51 ns    (82.6 %), step = 30.75 ps     (154 m%)
SOAC: I4.MND.soac_m1       modn V(B,PSUB): ENTERING@ 0.0171288us duration:0.00212us ;
    tran: time = 17.51 ns    (87.5 %), step = 64.26 ps     (321 m%)
    tran: time = 18.52 ns    (92.6 %), step = 34.53 ps     (173 m%)
    tran: time = 19.51 ns    (97.5 %), step = 27.81 ps     (139 m%)
Number of accepted tran steps =             2734

Maximum value achieved for any signal of each quantity: 
V: V(I4.net1) = 3.735 V
I: I(V:p) = 712.1 uA

~~~~~~~~~~~~~~~~~~~~~~~~~~~~~~~~~
Post-Transient Simulation Summary
~~~~~~~~~~~~~~~~~~~~~~~~~~~~~~~~~
   -   To further speed up simulation, consider
          add ++aps on command line
   -   Non-default settings that could significantly slow down simulation
          errpreset = conservative, default moderate
          reltol = 10e-06, default 100e-06 (conservative)
~~~~~~~~~~~~~~~~~~~~~~~~~~~~~~~~~


During simulation, the CPU load for active processors is :
         0 (15.9 %)      1 (10.0 %)      2 (14.3 %)      3 (14.7 %)
         4 (22.6 %)      5 (7.9 %)       6 (12.3 %)      7 (6.7 %)
         8 (12.1 %)      9 (11.6 %)     10 (16.1 %)     11 (8.0 %)
        Total: 152.2%
Initial condition solution time: CPU = 416 us, elapsed = 421.047 us.
Intrinsic tran analysis time:    CPU = 262.243 ms, elapsed = 271.526 ms.
Total time required for tran analysis `tran': CPU = 264.008 ms, elapsed = 282.406 ms, util. = 93.5%.
Time accumulated: CPU = 27.473 s, elapsed = 32.1004 s.
Peak resident memory used = 203 Mbytes.

finalTimeOP: writing operating point information to rawfile.

Opening the PSF file ../psf/mc1_separate/098/finalTimeOP.info ...
modelParameter: writing model parameter values to rawfile.

Opening the PSF file ../psf/mc1_separate/098/modelParameter.info ...
element: writing instance parameter values to rawfile.

Opening the PSF file ../psf/mc1_separate/098/element.info ...
outputParameter: writing output parameter values to rawfile.

Opening the PSF file ../psf/mc1_separate/098/outputParameter.info ...
designParamVals: writing netlist parameters to rawfile.

Opening the PSFASCII file ../psf/mc1_separate/098/designParamVals.info ...
primitives: writing primitives to rawfile.

Opening the PSFASCII file ../psf/mc1_separate/098/primitives.info.primitives ...
subckts: writing subcircuits to rawfile.

Opening the PSFASCII file ../psf/mc1_separate/098/subckts.info.subckts ...
    mc1: iteration = 98            (98 %), step = 1            (1.01 %)
99            98.99% 

************************************************
Transient Analysis `tran': time = (0 s -> 20 ns)
************************************************

Opening the PSF file ../psf/mc1_separate/099/tran.tran.tran ...

Notice from spectre during IC analysis, during transient analysis `tran', during Monte Carlo analysis `mc1'.
    GminDC = 1 pS is large enough to noticeably affect the DC solution.
        dV(I4.net2) = 101.841 mV
        Use the `gmin_check' option to eliminate or expand this report.
Warning from spectre during check, during IC analysis, during transient analysis `tran', during Monte Carlo analysis `mc1'.
    WARNING (CMI-2943): Parameter checks have been ignored because the valid value for parameter 'trise' could not be found in 'C0'.

DC simulation time: CPU = 344 us, elapsed = 345.945 us.
Important parameter values:
    start = 0 s
    outputstart = 0 s
    stop = 20 ns
    step = 20 ps
    maxstep = 200 ps
    ic = all
    useprevic = no
    skipdc = no
    reltol = 10e-06
    abstol(V) = 1 uV
    abstol(I) = 1 pA
    temp = 27 C
    tnom = 27 C
    tempeffects = all
    errpreset = conservative
    method = gear2only
    lteratio = 10
    relref = alllocal
    cmin = 0 F
    gmin = 1 pS
    rabsshort = 1 mOhm


Notice from spectre during transient analysis `tran', during Monte Carlo analysis `mc1'.
    Multithreading is disabled due to the size of the design being too small.


Output and IC/nodeset summary:
                 save   5       (current)
                 save   17      (voltage)

    tran: time = 509.1 ps    (2.55 %), step = 26.25 ps     (131 m%)
SOAC: I4.MND.soac_m1       modn V(B,PSUB): LEAVING@  0us ;
SOAC: I4.MND.soac_m1       modn V(B,PSUB): ENTERING@ 0.00117611us duration:0.00118us ;
    tran: time = 1.513 ns    (7.57 %), step = 18.07 ps    (90.3 m%)
    tran: time = 2.526 ns    (12.6 %), step = 27.43 ps     (137 m%)
    tran: time = 3.517 ns    (17.6 %), step = 25.42 ps     (127 m%)
SOAC: I4.MND.soac_m1       modn V(B,PSUB): LEAVING@  0.00310073us ;
    tran: time = 4.507 ns    (22.5 %), step = 48.63 ps     (243 m%)
SOAC: I4.MND.soac_m1       modn V(B,PSUB): ENTERING@ 0.0050251us duration:0.00192us ;
    tran: time = 5.502 ns    (27.5 %), step = 44.11 ps     (221 m%)
    tran: time = 6.508 ns    (32.5 %), step = 10.27 ps    (51.4 m%)
    tran: time = 7.523 ns    (37.6 %), step = 26 ps        (130 m%)
SOAC: I4.MND.soac_m1       modn V(B,PSUB): LEAVING@  0.00710072us ;
    tran: time = 8.508 ns    (42.5 %), step = 48.68 ps     (243 m%)
SOAC: I4.MND.soac_m1       modn V(B,PSUB): ENTERING@ 0.0090427us duration:0.00194us ;
    tran: time = 9.51 ns     (47.5 %), step = 33.26 ps     (166 m%)
    tran: time = 10.51 ns    (52.6 %), step = 24.01 ps     (120 m%)
    tran: time = 11.51 ns    (57.6 %), step = 15.88 ps    (79.4 m%)
    tran: time = 12.52 ns    (62.6 %), step = 61.72 ps     (309 m%)
SOAC: I4.MND.soac_m1       modn V(B,PSUB): LEAVING@  0.0120277us ;
SOAC: I4.MND.soac_m1       modn V(B,PSUB): ENTERING@ 0.0131118us duration:0.00108us ;
    tran: time = 13.54 ns    (67.7 %), step = 46.03 ps     (230 m%)
    tran: time = 14.52 ns    (72.6 %), step = 34.54 ps     (173 m%)
    tran: time = 15.51 ns    (77.5 %), step = 12.03 ps    (60.1 m%)
SOAC: I4.MND.soac_m1       modn V(B,PSUB): LEAVING@  0.0150041us ;
    tran: time = 16.51 ns    (82.6 %), step = 30.75 ps     (154 m%)
SOAC: I4.MND.soac_m1       modn V(B,PSUB): ENTERING@ 0.0171288us duration:0.00212us ;
    tran: time = 17.51 ns    (87.5 %), step = 64.26 ps     (321 m%)
    tran: time = 18.52 ns    (92.6 %), step = 34.53 ps     (173 m%)
    tran: time = 19.51 ns    (97.5 %), step = 27.81 ps     (139 m%)
Number of accepted tran steps =             2734

Maximum value achieved for any signal of each quantity: 
V: V(I4.net1) = 3.735 V
I: I(V:p) = 712.1 uA

~~~~~~~~~~~~~~~~~~~~~~~~~~~~~~~~~
Post-Transient Simulation Summary
~~~~~~~~~~~~~~~~~~~~~~~~~~~~~~~~~
   -   To further speed up simulation, consider
          add ++aps on command line
   -   Non-default settings that could significantly slow down simulation
          errpreset = conservative, default moderate
          reltol = 10e-06, default 100e-06 (conservative)
~~~~~~~~~~~~~~~~~~~~~~~~~~~~~~~~~


During simulation, the CPU load for active processors is :
         0 (15.7 %)      1 (10.0 %)      2 (14.2 %)      3 (14.6 %)
         4 (23.2 %)      5 (7.8 %)       6 (12.2 %)      7 (6.7 %)
         8 (11.9 %)      9 (11.5 %)     10 (15.9 %)     11 (7.9 %)
        Total: 151.6%
Initial condition solution time: CPU = 361 us, elapsed = 364.065 us.
Intrinsic tran analysis time:    CPU = 251.211 ms, elapsed = 260.73 ms.
Total time required for tran analysis `tran': CPU = 252.839 ms, elapsed = 271.362 ms, util. = 93.2%.
Time accumulated: CPU = 27.7382 s, elapsed = 32.4109 s.
Peak resident memory used = 203 Mbytes.

finalTimeOP: writing operating point information to rawfile.

Opening the PSF file ../psf/mc1_separate/099/finalTimeOP.info ...
modelParameter: writing model parameter values to rawfile.

Opening the PSF file ../psf/mc1_separate/099/modelParameter.info ...
element: writing instance parameter values to rawfile.

Opening the PSF file ../psf/mc1_separate/099/element.info ...
outputParameter: writing output parameter values to rawfile.

Opening the PSF file ../psf/mc1_separate/099/outputParameter.info ...
designParamVals: writing netlist parameters to rawfile.

Opening the PSFASCII file ../psf/mc1_separate/099/designParamVals.info ...
primitives: writing primitives to rawfile.

Opening the PSFASCII file ../psf/mc1_separate/099/primitives.info.primitives ...
subckts: writing subcircuits to rawfile.

Opening the PSFASCII file ../psf/mc1_separate/099/subckts.info.subckts ...
    mc1: iteration = 99            (99 %), step = 1            (1.01 %)
100          100.00% 

************************************************
Transient Analysis `tran': time = (0 s -> 20 ns)
************************************************

Opening the PSF file ../psf/mc1_separate/100/tran.tran.tran ...

Notice from spectre during IC analysis, during transient analysis `tran', during Monte Carlo analysis `mc1'.
    GminDC = 1 pS is large enough to noticeably affect the DC solution.
        dV(I4.net2) = 101.841 mV
        Use the `gmin_check' option to eliminate or expand this report.
Warning from spectre during check, during IC analysis, during transient analysis `tran', during Monte Carlo analysis `mc1'.
    WARNING (CMI-2943): Parameter checks have been ignored because the valid value for parameter 'trise' could not be found in 'C0'.

DC simulation time: CPU = 410 us, elapsed = 410.795 us.
Important parameter values:
    start = 0 s
    outputstart = 0 s
    stop = 20 ns
    step = 20 ps
    maxstep = 200 ps
    ic = all
    useprevic = no
    skipdc = no
    reltol = 10e-06
    abstol(V) = 1 uV
    abstol(I) = 1 pA
    temp = 27 C
    tnom = 27 C
    tempeffects = all
    errpreset = conservative
    method = gear2only
    lteratio = 10
    relref = alllocal
    cmin = 0 F
    gmin = 1 pS
    rabsshort = 1 mOhm


Notice from spectre during transient analysis `tran', during Monte Carlo analysis `mc1'.
    Multithreading is disabled due to the size of the design being too small.


Output and IC/nodeset summary:
                 save   5       (current)
                 save   17      (voltage)

    tran: time = 509.1 ps    (2.55 %), step = 26.25 ps     (131 m%)
SOAC: I4.MND.soac_m1       modn V(B,PSUB): LEAVING@  0us ;
SOAC: I4.MND.soac_m1       modn V(B,PSUB): ENTERING@ 0.00117611us duration:0.00118us ;
    tran: time = 1.513 ns    (7.57 %), step = 18.07 ps    (90.3 m%)
    tran: time = 2.526 ns    (12.6 %), step = 27.43 ps     (137 m%)
    tran: time = 3.517 ns    (17.6 %), step = 25.42 ps     (127 m%)
SOAC: I4.MND.soac_m1       modn V(B,PSUB): LEAVING@  0.00310073us ;
    tran: time = 4.507 ns    (22.5 %), step = 48.63 ps     (243 m%)
SOAC: I4.MND.soac_m1       modn V(B,PSUB): ENTERING@ 0.0050251us duration:0.00192us ;
    tran: time = 5.502 ns    (27.5 %), step = 44.11 ps     (221 m%)
    tran: time = 6.508 ns    (32.5 %), step = 10.27 ps    (51.4 m%)
    tran: time = 7.523 ns    (37.6 %), step = 26 ps        (130 m%)
SOAC: I4.MND.soac_m1       modn V(B,PSUB): LEAVING@  0.00710072us ;
    tran: time = 8.508 ns    (42.5 %), step = 48.68 ps     (243 m%)
SOAC: I4.MND.soac_m1       modn V(B,PSUB): ENTERING@ 0.0090427us duration:0.00194us ;
    tran: time = 9.51 ns     (47.5 %), step = 33.26 ps     (166 m%)
    tran: time = 10.51 ns    (52.6 %), step = 24.01 ps     (120 m%)
    tran: time = 11.51 ns    (57.6 %), step = 15.88 ps    (79.4 m%)
    tran: time = 12.52 ns    (62.6 %), step = 61.72 ps     (309 m%)
SOAC: I4.MND.soac_m1       modn V(B,PSUB): LEAVING@  0.0120277us ;
SOAC: I4.MND.soac_m1       modn V(B,PSUB): ENTERING@ 0.0131118us duration:0.00108us ;
    tran: time = 13.54 ns    (67.7 %), step = 46.03 ps     (230 m%)
    tran: time = 14.52 ns    (72.6 %), step = 34.54 ps     (173 m%)
    tran: time = 15.51 ns    (77.5 %), step = 12.03 ps    (60.1 m%)
SOAC: I4.MND.soac_m1       modn V(B,PSUB): LEAVING@  0.0150041us ;
    tran: time = 16.51 ns    (82.6 %), step = 30.75 ps     (154 m%)
SOAC: I4.MND.soac_m1       modn V(B,PSUB): ENTERING@ 0.0171288us duration:0.00212us ;
    tran: time = 17.51 ns    (87.5 %), step = 64.26 ps     (321 m%)
    tran: time = 18.52 ns    (92.6 %), step = 34.53 ps     (173 m%)
    tran: time = 19.51 ns    (97.5 %), step = 27.81 ps     (139 m%)
Number of accepted tran steps =             2734

Maximum value achieved for any signal of each quantity: 
V: V(I4.net1) = 3.735 V
I: I(V:p) = 712.1 uA

~~~~~~~~~~~~~~~~~~~~~~~~~~~~~~~~~
Post-Transient Simulation Summary
~~~~~~~~~~~~~~~~~~~~~~~~~~~~~~~~~
   -   To further speed up simulation, consider
          add ++aps on command line
   -   Non-default settings that could significantly slow down simulation
          errpreset = conservative, default moderate
          reltol = 10e-06, default 100e-06 (conservative)
~~~~~~~~~~~~~~~~~~~~~~~~~~~~~~~~~


During simulation, the CPU load for active processors is :
         0 (15.6 %)      1 (9.9 %)       2 (14.0 %)      3 (14.5 %)
         4 (23.7 %)      5 (7.7 %)       6 (12.1 %)      7 (6.6 %)
         8 (12.0 %)      9 (11.5 %)     10 (15.9 %)     11 (7.9 %)
        Total: 151.5%
Initial condition solution time: CPU = 427 us, elapsed = 427.008 us.
Intrinsic tran analysis time:    CPU = 261.075 ms, elapsed = 269.27 ms.
Total time required for tran analysis `tran': CPU = 262.859 ms, elapsed = 278.863 ms, util. = 94.3%.
Time accumulated: CPU = 28.0149 s, elapsed = 32.7296 s.
Peak resident memory used = 203 Mbytes.

finalTimeOP: writing operating point information to rawfile.

Opening the PSF file ../psf/mc1_separate/100/finalTimeOP.info ...
modelParameter: writing model parameter values to rawfile.

Opening the PSF file ../psf/mc1_separate/100/modelParameter.info ...
element: writing instance parameter values to rawfile.

Opening the PSF file ../psf/mc1_separate/100/element.info ...
outputParameter: writing output parameter values to rawfile.

Opening the PSF file ../psf/mc1_separate/100/outputParameter.info ...
designParamVals: writing netlist parameters to rawfile.

Opening the PSFASCII file ../psf/mc1_separate/100/designParamVals.info ...
primitives: writing primitives to rawfile.

Opening the PSFASCII file ../psf/mc1_separate/100/primitives.info.primitives ...
subckts: writing subcircuits to rawfile.

Opening the PSFASCII file ../psf/mc1_separate/100/subckts.info.subckts ...
    mc1: iteration = 100          (100 %), step = 1            (1.01 %)
Total time required for montecarlo analysis `mc1': CPU = 27.8666 s, elapsed = 32.2118 s, util. = 86.5%.
Time accumulated: CPU = 28.0255 s, elapsed = 32.7634 s.
Peak resident memory used = 203 Mbytes.

Licensing Information:
Lic Summary:
[22:37:46.222803] Cdslmd servers:5280@ls-dc2-fen-p1.services.bris.ac.uk:5280@ls-dc2-fen-p0.services.bris.ac.uk
[22:37:46.222835] Feature usage summary:
[22:37:46.222835] Virtuoso_Multi_mode_Simulation


Aggregate audit (10:37:46 PM, Sat Apr 20, 2024):
Time used: CPU = 28 s, elapsed = 32.8 s, util. = 85.5%.
Time spent in licensing: elapsed = 153 ms.
Peak memory used = 204 Mbytes.
Simulation started at: 10:37:13 PM, Sat Apr 20, 2024, ended at: 10:37:46 PM, Sat Apr 20, 2024, with elapsed time (wall clock): 32.8 s.
spectre completes with 0 errors, 117 warnings, and 210 notices.
